
     RDKit          2D

 39 41  0  0  0  0  0  0  0  0999 V2000
    1.5000    0.0000    0.0000 N   0  0  0  0  0  0  0  0  0  4  0  0
    0.7500   -1.2990    0.0000 C   0  0  0  0  0  0  0  0  0  8  0  0
    0.7500    1.2990    0.0000 C   0  0  0  0  0  0  0  0  0  9  0  0
   -0.7500   -1.2990    0.0000 C   0  0  0  0  0  0  0  0  0  5  0  0
    2.1595   -1.8121    0.0000 H   0  0  0  0  0  0  0  0  0  0  0  0
    0.4895   -2.7762    0.0000 H   0  0  0  0  0  0  0  0  0  0  0  0
   -0.7500    1.2990    0.0000 C   0  0  0  0  0  0  0  0  0  6  0  0
    0.4895    2.7762    0.0000 H   0  0  0  0  0  0  0  0  0  0  0  0
    2.1595    1.8121    0.0000 H   0  0  0  0  0  0  0  0  0  0  0  0
   -1.5000    0.0000    0.0000 N   0  0  0  0  0  0  0  0  0  3  0  0
   -0.4895   -2.7762    0.0000 H   0  0  0  0  0  0  0  0  0  0  0  0
   -1.4109   -1.7448    0.0000 H   0  0  0  0  0  0  0  0  0  0  0  0
   -1.9935    2.1379    0.0000 H   0  0  0  0  0  0  0  0  0  0  0  0
   -0.4895    2.7762    0.0000 H   0  0  0  0  0  0  0  0  0  0  0  0
   -3.0000    0.0000    0.0000 C   0  0  0  0  0  0  0  0  0  7  0  0
   -3.0000   -1.5000    0.0000 C   0  0  0  0  0  0  0  0  0 11  0  0
   -3.0000    1.5000    0.0000 C   0  0  0  0  0  0  0  0  0 12  0  0
   -4.5000    0.0000    0.0000 H   0  0  0  0  0  0  0  0  0  0  0  0
   -1.7010   -2.2500    0.0000 C   0  0  0  0  0  0  0  0  0 14  0  0
   -4.2990   -2.2500    0.0000 C   0  0  0  0  0  0  0  0  0 16  0  0
   -1.7010    2.2500    0.0000 C   0  0  0  0  0  0  0  0  0 15  0  0
   -4.2990    2.2500    0.0000 C   0  0  0  0  0  0  0  0  0 17  0  0
   -1.7010   -3.7500    0.0000 C   0  0  0  0  0  0  0  0  0 18  0  0
   -0.2590   -1.8366    0.0000 H   0  0  0  0  0  0  0  0  0  0  0  0
   -4.2990   -3.7500    0.0000 C   0  0  0  0  0  0  0  0  0 20  0  0
   -5.5981   -1.5000    0.0000 H   0  0  0  0  0  0  0  0  0  0  0  0
   -1.7010    3.7500    0.0000 C   0  0  0  0  0  0  0  0  0 19  0  0
   -0.2590    1.8366    0.0000 H   0  0  0  0  0  0  0  0  0  0  0  0
   -4.2990    3.7500    0.0000 C   0  0  0  0  0  0  0  0  0 21  0  0
   -5.5981    1.5000    0.0000 H   0  0  0  0  0  0  0  0  0  0  0  0
   -3.0000   -4.5000    0.0000 C   0  0  0  0  0  0  0  0  0 23  0  0
   -0.4019   -4.5000    0.0000 H   0  0  0  0  0  0  0  0  0  0  0  0
   -5.5981   -4.5000    0.0000 H   0  0  0  0  0  0  0  0  0  0  0  0
   -3.0000    4.5000    0.0000 C   0  0  0  0  0  0  0  0  0 24  0  0
   -0.4019    4.5000    0.0000 H   0  0  0  0  0  0  0  0  0  0  0  0
   -5.5981    4.5000    0.0000 H   0  0  0  0  0  0  0  0  0  0  0  0
   -3.0000   -6.0000    0.0000 F   0  0  0  0  0  0  0  0  0  1  0  0
   -3.0000    6.0000    0.0000 F   0  0  0  0  0  0  0  0  0  2  0  0
    3.0000    0.0000    0.0000 H   0  0  0  0  0  0  0  0  0  0  0  0
  2  1  1  0
  1  3  1  0
  4  2  1  0
  2  5  1  0
  2  6  1  0
  3  7  1  0
  3  8  1  0
  3  9  1  0
 10  4  1  0
  4 11  1  0
  4 12  1  0
  7 10  1  0
  7 13  1  0
  7 14  1  0
 15 10  1  0
 16 15  1  0
 15 17  1  0
 15 18  1  1
 19 16  2  0
 16 20  1  0
 17 21  2  0
 22 17  1  0
 23 19  1  0
 19 24  1  0
 20 25  2  0
 20 26  1  0
 21 27  1  0
 21 28  1  0
 29 22  2  0
 22 30  1  0
 31 23  2  0
 23 32  1  0
 25 31  1  0
 25 33  1  0
 27 34  2  0
 27 35  1  0
 34 29  1  0
 29 36  1  0
 37 31  1  0
 34 38  1  0
  1 39  1  0
M  END
>  <SMILES>  (1) 
Fc1ccc(C(c2ccc(F)cc2)N2CCNCC2)cc1

>  <Molecular Weight>  (1) 
288.3

>  <Substrate_ID>  (1) 
MOL0081

>  <Substrate>  (1) 


>  <Substrate_SMILES>  (1) 
Fc1ccc(C(c2ccc(F)cc2)N2CCN(CC=Cc3ccccc3)CC2)cc1

>  <Reaction>  (1) 
N-dealkylation_(tertiaryN-CH2-alkyl)

>  <Score>  (1) 
0.785

>  <Reaction_Score>  (1) 
0.7697

>  <Bond_Score>  (1) 
0.8007

>  <Rank>  (1) 
1

>  <Subtype>  (1) 
2C8, 2C9, 2C19, 2D6, 3A4

>  <Subtype_Scores>  (1) 
[2C8] SOM_score: 0.4321, Reaction_score: 0.7697, Score: 0.5767
[2C9] SOM_score: 0.2976, Reaction_score: 0.7697, Score: 0.4786
[2C19] SOM_score: 0.4362, Reaction_score: 0.7697, Score: 0.5794
[2D6] SOM_score: 0.4626, Reaction_score: 0.7697, Score: 0.5967
[3A4] SOM_score: 0.8007, Reaction_score: 0.7697, Score: 0.7850


$$$$

     RDKit          2D

 20 20  0  0  0  0  0  0  0  0999 V2000
    6.7500   -1.2990    0.0000 O   0  0  0  0  0  0  0  0  0 31  0  0
    5.2500   -1.2990    0.0000 C   0  0  0  0  0  0  0  0  0 10  0  0
    3.7500   -1.2990    0.0000 C   0  0  0  0  0  0  0  0  0 13  0  0
    5.2500    0.2010    0.0000 H   0  0  0  0  0  0  0  0  0  0  0  0
    5.2500   -2.7990    0.0000 H   0  0  0  0  0  0  0  0  0  0  0  0
    3.0000    0.0000    0.0000 C   0  0  0  0  0  0  0  0  0 22  0  0
    3.0000   -2.5981    0.0000 H   0  0  0  0  0  0  0  0  0  0  0  0
    1.5000    0.0000    0.0000 C   0  0  0  0  0  0  0  0  0 25  0  0
    3.7500    1.2990    0.0000 H   0  0  0  0  0  0  0  0  0  0  0  0
    0.7500   -1.2990    0.0000 C   0  0  0  0  0  0  0  0  0 26  0  0
    0.7500    1.2990    0.0000 C   0  0  0  0  0  0  0  0  0 27  0  0
   -0.7500   -1.2990    0.0000 C   0  0  0  0  0  0  0  0  0 28  0  0
    1.5000   -2.5981    0.0000 H   0  0  0  0  0  0  0  0  0  0  0  0
   -0.7500    1.2990    0.0000 C   0  0  0  0  0  0  0  0  0 29  0  0
    1.5000    2.5981    0.0000 H   0  0  0  0  0  0  0  0  0  0  0  0
   -1.5000    0.0000    0.0000 C   0  0  0  0  0  0  0  0  0 30  0  0
   -1.5000   -2.5981    0.0000 H   0  0  0  0  0  0  0  0  0  0  0  0
   -1.5000    2.5981    0.0000 H   0  0  0  0  0  0  0  0  0  0  0  0
   -3.0000    0.0000    0.0000 H   0  0  0  0  0  0  0  0  0  0  0  0
    7.5000    0.0000    0.0000 H   0  0  0  0  0  0  0  0  0  0  0  0
  1  2  1  0
  2  3  1  0
  2  4  1  0
  2  5  1  0
  3  6  2  0
  3  7  1  0
  6  8  1  0
  6  9  1  0
  8 10  2  0
 11  8  1  0
 10 12  1  0
 10 13  1  0
 14 11  2  0
 11 15  1  0
 12 16  2  0
 12 17  1  0
 16 14  1  0
 14 18  1  0
 16 19  1  0
  1 20  1  0
M  END
>  <SMILES>  (2) 
OCC=Cc1ccccc1

>  <Molecular Weight>  (2) 
134.2

>  <Substrate_ID>  (2) 
MOL0081

>  <Substrate>  (2) 


>  <Substrate_SMILES>  (2) 
Fc1ccc(C(c2ccc(F)cc2)N2CCN(CC=Cc3ccccc3)CC2)cc1

>  <Reaction>  (2) 
N-dealkylation_(tertiaryN-CH2-alkyl)

>  <Score>  (2) 
0.785

>  <Reaction_Score>  (2) 
0.7697

>  <Bond_Score>  (2) 
0.8007

>  <Rank>  (2) 
1

>  <Subtype>  (2) 
2C8, 2C9, 2C19, 2D6, 3A4

>  <Subtype_Scores>  (2) 
[2C8] SOM_score: 0.4321, Reaction_score: 0.7697, Score: 0.5767
[2C9] SOM_score: 0.2976, Reaction_score: 0.7697, Score: 0.4786
[2C19] SOM_score: 0.4362, Reaction_score: 0.7697, Score: 0.5794
[2D6] SOM_score: 0.4626, Reaction_score: 0.7697, Score: 0.5967
[3A4] SOM_score: 0.8007, Reaction_score: 0.7697, Score: 0.7850


$$$$

     RDKit          2D

 18 18  0  0  0  0  0  0  0  0999 V2000
    5.2500   -1.2990    0.0000 C   0  0  0  0  0  0  0  0  0 10  0  0
    6.0000    0.0000    0.0000 O   0  0  0  0  0  0  0  0  0 31  0  0
    3.7500   -1.2990    0.0000 C   0  0  0  0  0  0  0  0  0 13  0  0
    6.0000   -2.5981    0.0000 H   0  0  0  0  0  0  0  0  0  0  0  0
    3.0000    0.0000    0.0000 C   0  0  0  0  0  0  0  0  0 22  0  0
    3.0000   -2.5981    0.0000 H   0  0  0  0  0  0  0  0  0  0  0  0
    1.5000    0.0000    0.0000 C   0  0  0  0  0  0  0  0  0 25  0  0
    3.7500    1.2990    0.0000 H   0  0  0  0  0  0  0  0  0  0  0  0
    0.7500   -1.2990    0.0000 C   0  0  0  0  0  0  0  0  0 26  0  0
    0.7500    1.2990    0.0000 C   0  0  0  0  0  0  0  0  0 27  0  0
   -0.7500   -1.2990    0.0000 C   0  0  0  0  0  0  0  0  0 28  0  0
    1.5000   -2.5981    0.0000 H   0  0  0  0  0  0  0  0  0  0  0  0
   -0.7500    1.2990    0.0000 C   0  0  0  0  0  0  0  0  0 29  0  0
    1.5000    2.5981    0.0000 H   0  0  0  0  0  0  0  0  0  0  0  0
   -1.5000    0.0000    0.0000 C   0  0  0  0  0  0  0  0  0 30  0  0
   -1.5000   -2.5981    0.0000 H   0  0  0  0  0  0  0  0  0  0  0  0
   -1.5000    2.5981    0.0000 H   0  0  0  0  0  0  0  0  0  0  0  0
   -3.0000    0.0000    0.0000 H   0  0  0  0  0  0  0  0  0  0  0  0
  1  2  2  0
  1  3  1  0
  1  4  1  0
  3  5  2  0
  3  6  1  0
  5  7  1  0
  5  8  1  0
  7  9  2  0
 10  7  1  0
  9 11  1  0
  9 12  1  0
 13 10  2  0
 10 14  1  0
 11 15  2  0
 11 16  1  0
 15 13  1  0
 13 17  1  0
 15 18  1  0
M  END
>  <SMILES>  (3) 
O=CC=Cc1ccccc1

>  <Molecular Weight>  (3) 
132.2

>  <Substrate_ID>  (3) 
MOL0081

>  <Substrate>  (3) 


>  <Substrate_SMILES>  (3) 
Fc1ccc(C(c2ccc(F)cc2)N2CCN(CC=Cc3ccccc3)CC2)cc1

>  <Reaction>  (3) 
N-dealkylation_(hetero_ring)

>  <Score>  (3) 
0.785

>  <Reaction_Score>  (3) 
0.7697

>  <Bond_Score>  (3) 
0.8007

>  <Rank>  (3) 
1

>  <Subtype>  (3) 
2C8, 2C9, 2C19, 2D6, 3A4

>  <Subtype_Scores>  (3) 
[2C8] SOM_score: 0.4321, Reaction_score: 0.7697, Score: 0.5767
[2C9] SOM_score: 0.2976, Reaction_score: 0.7697, Score: 0.4786
[2C19] SOM_score: 0.4362, Reaction_score: 0.7697, Score: 0.5794
[2D6] SOM_score: 0.4626, Reaction_score: 0.7697, Score: 0.5967
[3A4] SOM_score: 0.8007, Reaction_score: 0.7697, Score: 0.7850


$$$$

     RDKit          2D

 33 34  0  0  0  0  0  0  0  0999 V2000
    1.5000    0.0000    0.0000 N   0  0  0  0  0  0  0  0  0  3  0  0
    3.0000    0.0000    0.0000 H   0  0  0  0  0  0  0  0  0  0  0  0
    0.7500    1.2990    0.0000 C   0  0  0  0  0  0  0  0  0  5  0  0
    0.7500   -1.2990    0.0000 C   0  0  0  0  0  0  0  0  0  6  0  0
   -0.7500    1.2990    0.0000 C   0  0  0  0  0  0  0  0  0  8  0  0
    2.1595    1.8121    0.0000 H   0  0  0  0  0  0  0  0  0  0  0  0
    0.4895    2.7762    0.0000 H   0  0  0  0  0  0  0  0  0  0  0  0
   -0.7500   -1.2990    0.0000 C   0  0  0  0  0  0  0  0  0  9  0  0
    0.4895   -2.7762    0.0000 H   0  0  0  0  0  0  0  0  0  0  0  0
    2.1595   -1.8121    0.0000 H   0  0  0  0  0  0  0  0  0  0  0  0
   -1.5000    0.0000    0.0000 N   0  0  0  0  0  0  0  0  0  4  0  0
   -0.4895    2.7762    0.0000 H   0  0  0  0  0  0  0  0  0  0  0  0
   -2.0865    1.9801    0.0000 H   0  0  0  0  0  0  0  0  0  0  0  0
   -2.0865   -1.9801    0.0000 H   0  0  0  0  0  0  0  0  0  0  0  0
   -0.4895   -2.7762    0.0000 H   0  0  0  0  0  0  0  0  0  0  0  0
   -3.0000    0.0000    0.0000 C   0  0  0  0  0  0  0  0  0 10  0  0
   -4.5000    0.0000    0.0000 C   0  0  0  0  0  0  0  0  0 13  0  0
   -3.1828    1.4888    0.0000 H   0  0  0  0  0  0  0  0  0  0  0  0
   -3.1828   -1.4888    0.0000 H   0  0  0  0  0  0  0  0  0  0  0  0
   -5.2500   -1.2990    0.0000 C   0  0  0  0  0  0  0  0  0 22  0  0
   -5.2500    1.2990    0.0000 H   0  0  0  0  0  0  0  0  0  0  0  0
   -6.7500   -1.2990    0.0000 C   0  0  0  0  0  0  0  0  0 25  0  0
   -4.5000   -2.5981    0.0000 H   0  0  0  0  0  0  0  0  0  0  0  0
   -7.5000    0.0000    0.0000 C   0  0  0  0  0  0  0  0  0 26  0  0
   -7.5000   -2.5981    0.0000 C   0  0  0  0  0  0  0  0  0 27  0  0
   -9.0000   -0.0000    0.0000 C   0  0  0  0  0  0  0  0  0 28  0  0
   -6.7500    1.2990    0.0000 H   0  0  0  0  0  0  0  0  0  0  0  0
   -9.0000   -2.5981    0.0000 C   0  0  0  0  0  0  0  0  0 29  0  0
   -6.7500   -3.8971    0.0000 H   0  0  0  0  0  0  0  0  0  0  0  0
   -9.7500   -1.2990    0.0000 C   0  0  0  0  0  0  0  0  0 30  0  0
   -9.7500    1.2990    0.0000 H   0  0  0  0  0  0  0  0  0  0  0  0
   -9.7500   -3.8971    0.0000 H   0  0  0  0  0  0  0  0  0  0  0  0
  -11.2500   -1.2990    0.0000 H   0  0  0  0  0  0  0  0  0  0  0  0
  1  2  1  0
  1  3  1  0
  4  1  1  0
  3  5  1  0
  3  6  1  0
  3  7  1  0
  8  4  1  0
  4  9  1  0
  4 10  1  0
  5 11  1  0
  5 12  1  0
  5 13  1  0
 11  8  1  0
  8 14  1  0
  8 15  1  0
 11 16  1  0
 16 17  1  0
 16 18  1  0
 16 19  1  0
 17 20  2  0
 17 21  1  0
 20 22  1  0
 20 23  1  0
 22 24  2  0
 25 22  1  0
 24 26  1  0
 24 27  1  0
 28 25  2  0
 25 29  1  0
 26 30  2  0
 26 31  1  0
 30 28  1  0
 28 32  1  0
 30 33  1  0
M  END
>  <SMILES>  (4) 
C(=Cc1ccccc1)CN1CCNCC1

>  <Molecular Weight>  (4) 
202.3

>  <Substrate_ID>  (4) 
MOL0081

>  <Substrate>  (4) 


>  <Substrate_SMILES>  (4) 
Fc1ccc(C(c2ccc(F)cc2)N2CCN(CC=Cc3ccccc3)CC2)cc1

>  <Reaction>  (4) 
N-dealkylation_(hetero_ring)

>  <Score>  (4) 
0.3182

>  <Reaction_Score>  (4) 
0.2808

>  <Bond_Score>  (4) 
0.3606

>  <Rank>  (4) 
2

>  <Subtype>  (4) 
2C8, 2C19, 3A4

>  <Subtype_Scores>  (4) 
[2C8] SOM_score: 0.1326, Reaction_score: 0.2808, Score: 0.1930
[2C19] SOM_score: 0.1566, Reaction_score: 0.2808, Score: 0.2097
[3A4] SOM_score: 0.3606, Reaction_score: 0.2808, Score: 0.3182


$$$$

     RDKit          2D

 24 25  0  0  0  0  0  0  0  0999 V2000
    1.5000   -2.5981    0.0000 C   0  0  0  0  0  0  0  0  0  7  0  0
    3.0000   -2.5981    0.0000 O   0  0  0  0  0  0  0  0  0 31  0  0
    0.7500   -1.2990    0.0000 C   0  0  0  0  0  0  0  0  0 11  0  0
    0.7500   -3.8971    0.0000 C   0  0  0  0  0  0  0  0  0 12  0  0
    1.5000   -0.0000    0.0000 C   0  0  0  0  0  0  0  0  0 14  0  0
   -0.7500   -1.2990    0.0000 C   0  0  0  0  0  0  0  0  0 16  0  0
   -0.7500   -3.8971    0.0000 C   0  0  0  0  0  0  0  0  0 15  0  0
    1.5000   -5.1962    0.0000 C   0  0  0  0  0  0  0  0  0 17  0  0
    0.7500    1.2990    0.0000 C   0  0  0  0  0  0  0  0  0 18  0  0
    3.0000    0.0000    0.0000 H   0  0  0  0  0  0  0  0  0  0  0  0
   -1.5000   -0.0000    0.0000 C   0  0  0  0  0  0  0  0  0 20  0  0
   -1.3423   -2.0850    0.0000 H   0  0  0  0  0  0  0  0  0  0  0  0
   -1.5000   -5.1962    0.0000 C   0  0  0  0  0  0  0  0  0 19  0  0
   -1.3423   -3.1112    0.0000 H   0  0  0  0  0  0  0  0  0  0  0  0
    0.7500   -6.4952    0.0000 C   0  0  0  0  0  0  0  0  0 21  0  0
    3.0000   -5.1962    0.0000 H   0  0  0  0  0  0  0  0  0  0  0  0
   -0.7500    1.2990    0.0000 C   0  0  0  0  0  0  0  0  0 23  0  0
    1.5000    2.5981    0.0000 H   0  0  0  0  0  0  0  0  0  0  0  0
   -3.0000   -0.0000    0.0000 H   0  0  0  0  0  0  0  0  0  0  0  0
   -0.7500   -6.4952    0.0000 C   0  0  0  0  0  0  0  0  0 24  0  0
   -3.0000   -5.1962    0.0000 H   0  0  0  0  0  0  0  0  0  0  0  0
    1.5000   -7.7942    0.0000 H   0  0  0  0  0  0  0  0  0  0  0  0
   -1.5000    2.5981    0.0000 F   0  0  0  0  0  0  0  0  0  1  0  0
   -1.5000   -7.7942    0.0000 F   0  0  0  0  0  0  0  0  0  2  0  0
  1  2  2  0
  3  1  1  0
  1  4  1  0
  5  3  2  0
  3  6  1  0
  4  7  2  0
  8  4  1  0
  9  5  1  0
  5 10  1  0
  6 11  2  0
  6 12  1  0
  7 13  1  0
  7 14  1  0
 15  8  2  0
  8 16  1  0
 17  9  2  0
  9 18  1  0
 11 17  1  0
 11 19  1  0
 13 20  2  0
 13 21  1  0
 20 15  1  0
 15 22  1  0
 23 17  1  0
 20 24  1  0
M  END
>  <SMILES>  (5) 
O=C(c1ccc(F)cc1)c1ccc(F)cc1

>  <Molecular Weight>  (5) 
218.2

>  <Substrate_ID>  (5) 
MOL0081

>  <Substrate>  (5) 


>  <Substrate_SMILES>  (5) 
Fc1ccc(C(c2ccc(F)cc2)N2CCN(CC=Cc3ccccc3)CC2)cc1

>  <Reaction>  (5) 
N-dealkylation_(hetero_ring)

>  <Score>  (5) 
0.3182

>  <Reaction_Score>  (5) 
0.2808

>  <Bond_Score>  (5) 
0.3606

>  <Rank>  (5) 
2

>  <Subtype>  (5) 
2C8, 2C19, 3A4

>  <Subtype_Scores>  (5) 
[2C8] SOM_score: 0.1326, Reaction_score: 0.2808, Score: 0.1930
[2C19] SOM_score: 0.1566, Reaction_score: 0.2808, Score: 0.2097
[3A4] SOM_score: 0.3606, Reaction_score: 0.2808, Score: 0.3182


$$$$

     RDKit          2D

 57 60  0  0  0  0  0  0  0  0999 V2000
   -0.7500   -3.8971    0.0000 C   0  0  0  0  0  0  0  0  0 22  0  0
   -1.5000   -2.5981    0.0000 C   0  0  0  0  0  0  0  0  0 25  0  0
   -3.0000   -2.5981    0.0000 C   0  0  0  0  0  0  0  0  0 27  0  0
   -3.7500   -1.2990    0.0000 C   0  0  0  0  0  0  0  0  0 29  0  0
   -3.0000   -0.0000    0.0000 C   0  0  0  0  0  0  0  0  0 30  0  0
   -3.7500    1.2990    0.0000 O   0  0  0  0  0  0  0  0  0 31  0  0
   -1.5000   -0.0000    0.0000 C   0  0  0  0  0  0  0  0  0 28  0  0
   -0.7500   -1.2990    0.0000 C   0  0  0  0  0  0  0  0  0 26  0  0
    0.7500   -3.8971    0.0000 C   0  0  0  0  0  0  0  0  0 13  0  0
   -1.5000   -5.1962    0.0000 H   0  0  0  0  0  0  0  0  0  0  0  0
    1.5000   -5.1962    0.0000 C   0  0  0  0  0  0  0  0  0 10  0  0
    1.5000   -2.5981    0.0000 H   0  0  0  0  0  0  0  0  0  0  0  0
    2.2500   -6.4952    0.0000 N   0  0  0  0  0  0  0  0  0  4  0  0
    0.1192   -5.7822    0.0000 H   0  0  0  0  0  0  0  0  0  0  0  0
    2.6979   -4.2934    0.0000 H   0  0  0  0  0  0  0  0  0  0  0  0
    1.5000   -7.7942    0.0000 C   0  0  0  0  0  0  0  0  0  8  0  0
    3.7500   -6.4952    0.0000 C   0  0  0  0  0  0  0  0  0  9  0  0
    2.2500   -9.0933    0.0000 C   0  0  0  0  0  0  0  0  0  5  0  0
    0.3509   -8.7584    0.0000 H   0  0  0  0  0  0  0  0  0  0  0  0
    0.2420   -6.9773    0.0000 H   0  0  0  0  0  0  0  0  0  0  0  0
    4.5000   -7.7942    0.0000 C   0  0  0  0  0  0  0  0  0  6  0  0
    3.6715   -4.9972    0.0000 H   0  0  0  0  0  0  0  0  0  0  0  0
    5.1595   -5.9822    0.0000 H   0  0  0  0  0  0  0  0  0  0  0  0
    3.7500   -9.0933    0.0000 N   0  0  0  0  0  0  0  0  0  3  0  0
    2.3285  -10.5912    0.0000 H   0  0  0  0  0  0  0  0  0  0  0  0
    0.8405   -9.6063    0.0000 H   0  0  0  0  0  0  0  0  0  0  0  0
    5.6491   -6.8300    0.0000 H   0  0  0  0  0  0  0  0  0  0  0  0
    5.2165   -8.1436    0.0000 H   0  0  0  0  0  0  0  0  0  0  0  0
    4.5000  -10.3923    0.0000 C   0  0  0  0  0  0  0  0  0  7  0  0
    5.7990   -9.6423    0.0000 C   0  0  0  0  0  0  0  0  0 11  0  0
    5.2500  -11.6913    0.0000 C   0  0  0  0  0  0  0  0  0 12  0  0
    3.3021  -11.2951    0.0000 H   0  0  0  0  0  0  0  0  0  0  0  0
    7.0981  -10.3923    0.0000 C   0  0  0  0  0  0  0  0  0 14  0  0
    5.7990   -8.1423    0.0000 C   0  0  0  0  0  0  0  0  0 16  0  0
    4.5000  -12.9904    0.0000 C   0  0  0  0  0  0  0  0  0 15  0  0
    6.7500  -11.6913    0.0000 C   0  0  0  0  0  0  0  0  0 17  0  0
    8.3971   -9.6423    0.0000 C   0  0  0  0  0  0  0  0  0 18  0  0
    7.4610  -11.8477    0.0000 H   0  0  0  0  0  0  0  0  0  0  0  0
    7.0981   -7.3923    0.0000 C   0  0  0  0  0  0  0  0  0 20  0  0
    4.7201   -7.1003    0.0000 H   0  0  0  0  0  0  0  0  0  0  0  0
    5.2500  -14.2894    0.0000 C   0  0  0  0  0  0  0  0  0 19  0  0
    3.0000  -12.9904    0.0000 H   0  0  0  0  0  0  0  0  0  0  0  0
    7.5000  -12.9904    0.0000 C   0  0  0  0  0  0  0  0  0 21  0  0
    7.7920  -10.6124    0.0000 H   0  0  0  0  0  0  0  0  0  0  0  0
    8.3971   -8.1423    0.0000 C   0  0  0  0  0  0  0  0  0 23  0  0
    9.6962  -10.3923    0.0000 H   0  0  0  0  0  0  0  0  0  0  0  0
    7.0981   -5.8923    0.0000 H   0  0  0  0  0  0  0  0  0  0  0  0
    6.7500  -14.2894    0.0000 C   0  0  0  0  0  0  0  0  0 24  0  0
    4.5000  -15.5885    0.0000 H   0  0  0  0  0  0  0  0  0  0  0  0
    9.0000  -12.9904    0.0000 H   0  0  0  0  0  0  0  0  0  0  0  0
    9.6962   -7.3923    0.0000 F   0  0  0  0  0  0  0  0  0  1  0  0
    7.5000  -15.5885    0.0000 F   0  0  0  0  0  0  0  0  0  2  0  0
   -3.7500   -3.8971    0.0000 H   0  0  0  0  0  0  0  0  0  0  0  0
   -5.2500   -1.2990    0.0000 H   0  0  0  0  0  0  0  0  0  0  0  0
   -0.7500    1.2990    0.0000 H   0  0  0  0  0  0  0  0  0  0  0  0
    0.7500   -1.2990    0.0000 H   0  0  0  0  0  0  0  0  0  0  0  0
   -5.2500    1.2990    0.0000 H   0  0  0  0  0  0  0  0  0  0  0  0
  1  2  1  0
  2  3  2  0
  3  4  1  0
  4  5  2  0
  5  6  1  0
  5  7  1  0
  7  8  2  0
  8  2  1  0
  9  1  2  0
  1 10  1  0
 11  9  1  0
  9 12  1  0
 13 11  1  0
 11 14  1  0
 11 15  1  0
 16 13  1  0
 13 17  1  0
 18 16  1  0
 16 19  1  0
 16 20  1  0
 17 21  1  0
 17 22  1  0
 17 23  1  0
 24 18  1  0
 18 25  1  0
 18 26  1  0
 21 24  1  0
 21 27  1  0
 21 28  1  0
 29 24  1  0
 30 29  1  0
 29 31  1  0
 29 32  1  1
 33 30  2  0
 30 34  1  0
 31 35  2  0
 36 31  1  0
 37 33  1  0
 33 38  1  0
 34 39  2  0
 34 40  1  0
 35 41  1  0
 35 42  1  0
 43 36  2  0
 36 44  1  0
 45 37  2  0
 37 46  1  0
 39 45  1  0
 39 47  1  0
 41 48  2  0
 41 49  1  0
 48 43  1  0
 43 50  1  0
 51 45  1  0
 48 52  1  0
  3 53  1  0
  4 54  1  0
  7 55  1  0
  8 56  1  0
  6 57  1  0
M  END
>  <SMILES>  (6) 
Oc1ccc(C=CCN2CCN(C(c3ccc(F)cc3)c3ccc(F)cc3)CC2)cc1

>  <Molecular Weight>  (6) 
420.5

>  <Substrate_ID>  (6) 
MOL0081

>  <Substrate>  (6) 


>  <Substrate_SMILES>  (6) 
Fc1ccc(C(c2ccc(F)cc2)N2CCN(CC=Cc3ccccc3)CC2)cc1

>  <Reaction>  (6) 
aromatic_hydroxylation_(para_to_carbon),aromatic hydroxylation

>  <Score>  (6) 
0.2468

>  <Reaction_Score>  (6) 
0.2885

>  <Bond_Score>  (6) 
0.2112

>  <Rank>  (6) 
3

>  <Subtype>  (6) 
2C8, 2C9, 2C19, 2D6, 3A4

>  <Subtype_Scores>  (6) 
[2C8] SOM_score: 0.1326, Reaction_score: 0.2885, Score: 0.1956
[2C9] SOM_score: 0.2112, Reaction_score: 0.2885, Score: 0.2468
[2C19] SOM_score: 0.1621, Reaction_score: 0.2885, Score: 0.2163
[2D6] SOM_score: 0.1626, Reaction_score: 0.2885, Score: 0.2166
[3A4] SOM_score: 0.2004, Reaction_score: 0.2885, Score: 0.2404


$$$$

     RDKit          2D

 57 60  0  0  0  0  0  0  0  0999 V2000
    1.5000    0.0000    0.0000 C   0  0  0  0  0  0  0  0  0  8  0  0
    0.7500   -1.2990    0.0000 N   0  0  0  0  0  4  0  0  0  4  0  0
    2.1595   -1.8121    0.0000 C   0  0  0  0  0  0  0  0  0 10  0  0
   -0.7500   -1.2990    0.0000 C   0  0  0  0  0  0  0  0  0  9  0  0
    0.4895   -2.7762    0.0000 O   0  0  0  0  0  1  0  0  0 31  0  0
    0.7500    1.2990    0.0000 C   0  0  0  0  0  0  0  0  0  5  0  0
    2.6491    0.9642    0.0000 H   0  0  0  0  0  0  0  0  0  0  0  0
    2.7580   -0.8169    0.0000 H   0  0  0  0  0  0  0  0  0  0  0  0
   -0.7500    1.2990    0.0000 N   0  0  0  0  0  0  0  0  0  3  0  0
    0.6715    2.7970    0.0000 H   0  0  0  0  0  0  0  0  0  0  0  0
    2.1595    1.8121    0.0000 H   0  0  0  0  0  0  0  0  0  0  0  0
   -1.5000    2.5981    0.0000 C   0  0  0  0  0  0  0  0  0  7  0  0
   -1.5000    0.0000    0.0000 C   0  0  0  0  0  0  0  0  0  6  0  0
   -2.7990    1.8481    0.0000 C   0  0  0  0  0  0  0  0  0 11  0  0
   -2.2500    3.8971    0.0000 C   0  0  0  0  0  0  0  0  0 12  0  0
   -0.3021    3.5008    0.0000 H   0  0  0  0  0  0  0  0  0  0  0  0
   -2.6491   -0.9642    0.0000 H   0  0  0  0  0  0  0  0  0  0  0  0
   -2.2165    0.3494    0.0000 H   0  0  0  0  0  0  0  0  0  0  0  0
   -4.0981    2.5981    0.0000 C   0  0  0  0  0  0  0  0  0 14  0  0
   -2.7990    0.3481    0.0000 C   0  0  0  0  0  0  0  0  0 16  0  0
   -1.5000    5.1962    0.0000 C   0  0  0  0  0  0  0  0  0 15  0  0
   -3.7500    3.8971    0.0000 C   0  0  0  0  0  0  0  0  0 17  0  0
   -5.3971    1.8481    0.0000 C   0  0  0  0  0  0  0  0  0 18  0  0
   -4.4610    4.0535    0.0000 H   0  0  0  0  0  0  0  0  0  0  0  0
   -4.0981   -0.4019    0.0000 C   0  0  0  0  0  0  0  0  0 20  0  0
   -1.7201   -0.6940    0.0000 H   0  0  0  0  0  0  0  0  0  0  0  0
   -2.2500    6.4952    0.0000 C   0  0  0  0  0  0  0  0  0 19  0  0
    0.0000    5.1962    0.0000 H   0  0  0  0  0  0  0  0  0  0  0  0
   -4.5000    5.1962    0.0000 C   0  0  0  0  0  0  0  0  0 21  0  0
   -4.7920    2.8182    0.0000 H   0  0  0  0  0  0  0  0  0  0  0  0
   -5.3971    0.3481    0.0000 C   0  0  0  0  0  0  0  0  0 23  0  0
   -6.6962    2.5981    0.0000 H   0  0  0  0  0  0  0  0  0  0  0  0
   -4.0981   -1.9019    0.0000 H   0  0  0  0  0  0  0  0  0  0  0  0
   -3.7500    6.4952    0.0000 C   0  0  0  0  0  0  0  0  0 24  0  0
   -1.5000    7.7942    0.0000 H   0  0  0  0  0  0  0  0  0  0  0  0
   -6.0000    5.1962    0.0000 H   0  0  0  0  0  0  0  0  0  0  0  0
   -6.6962   -0.4019    0.0000 F   0  0  0  0  0  0  0  0  0  1  0  0
   -4.5000    7.7942    0.0000 F   0  0  0  0  0  0  0  0  0  2  0  0
    3.5691   -2.3251    0.0000 C   0  0  0  0  0  0  0  0  0 13  0  0
    1.6465   -3.2216    0.0000 H   0  0  0  0  0  0  0  0  0  0  0  0
    2.8406   -0.4756    0.0000 H   0  0  0  0  0  0  0  0  0  0  0  0
    3.8296   -3.8023    0.0000 C   0  0  0  0  0  0  0  0  0 22  0  0
    4.7181   -1.3609    0.0000 H   0  0  0  0  0  0  0  0  0  0  0  0
    5.2391   -4.3153    0.0000 C   0  0  0  0  0  0  0  0  0 25  0  0
    2.6805   -4.7665    0.0000 H   0  0  0  0  0  0  0  0  0  0  0  0
    5.4996   -5.7926    0.0000 C   0  0  0  0  0  0  0  0  0 26  0  0
    6.3882   -3.3512    0.0000 C   0  0  0  0  0  0  0  0  0 27  0  0
    6.9091   -6.3056    0.0000 C   0  0  0  0  0  0  0  0  0 28  0  0
    4.3505   -6.7567    0.0000 H   0  0  0  0  0  0  0  0  0  0  0  0
    7.7977   -3.8642    0.0000 C   0  0  0  0  0  0  0  0  0 29  0  0
    6.1277   -1.8739    0.0000 H   0  0  0  0  0  0  0  0  0  0  0  0
    8.0582   -5.3414    0.0000 C   0  0  0  0  0  0  0  0  0 30  0  0
    7.1696   -7.7828    0.0000 H   0  0  0  0  0  0  0  0  0  0  0  0
    8.9468   -2.9000    0.0000 H   0  0  0  0  0  0  0  0  0  0  0  0
    9.4677   -5.8544    0.0000 H   0  0  0  0  0  0  0  0  0  0  0  0
   -0.4895   -2.7762    0.0000 H   0  0  0  0  0  0  0  0  0  0  0  0
   -2.1595   -1.8121    0.0000 H   0  0  0  0  0  0  0  0  0  0  0  0
  1  2  1  0
  2  3  1  0
  2  4  1  0
  2  5  1  0
  6  1  1  0
  1  7  1  0
  1  8  1  0
  9  6  1  0
  6 10  1  0
  6 11  1  0
 12  9  1  0
 13  9  1  0
 14 12  1  0
 12 15  1  0
 12 16  1  1
  4 13  1  0
 13 17  1  0
 13 18  1  0
 19 14  2  0
 14 20  1  0
 15 21  2  0
 22 15  1  0
 23 19  1  0
 19 24  1  0
 20 25  2  0
 20 26  1  0
 21 27  1  0
 21 28  1  0
 29 22  2  0
 22 30  1  0
 31 23  2  0
 23 32  1  0
 25 31  1  0
 25 33  1  0
 27 34  2  0
 27 35  1  0
 34 29  1  0
 29 36  1  0
 37 31  1  0
 34 38  1  0
  3 39  1  0
  3 40  1  0
  3 41  1  0
 39 42  2  0
 39 43  1  0
 42 44  1  0
 42 45  1  0
 44 46  2  0
 47 44  1  0
 46 48  1  0
 46 49  1  0
 50 47  2  0
 47 51  1  0
 48 52  2  0
 48 53  1  0
 52 50  1  0
 50 54  1  0
 52 55  1  0
  4 56  1  0
  4 57  1  0
M  CHG  2   2   1   5  -1
M  END
>  <SMILES>  (7) 
[O-][N+]1(CC=Cc2ccccc2)CCN(C(c2ccc(F)cc2)c2ccc(F)cc2)CC1

>  <Molecular Weight>  (7) 
420.5

>  <Substrate_ID>  (7) 
MOL0081

>  <Substrate>  (7) 


>  <Substrate_SMILES>  (7) 
Fc1ccc(C(c2ccc(F)cc2)N2CCN(CC=Cc3ccccc3)CC2)cc1

>  <Reaction>  (7) 
N-oxidation_(tertiary_N),N-oxidation

>  <Score>  (7) 
0.0583

>  <Reaction_Score>  (7) 
0.0043

>  <Bond_Score>  (7) 
0.7821

>  <Rank>  (7) 
4

>  <Subtype>  (7) 
2C8, 2C9, 2C19, 2D6, 3A4

>  <Subtype_Scores>  (7) 
[2C8] SOM_score: 0.4390, Reaction_score: 0.0043, Score: 0.0437
[2C9] SOM_score: 0.3243, Reaction_score: 0.0043, Score: 0.0375
[2C19] SOM_score: 0.4180, Reaction_score: 0.0043, Score: 0.0426
[2D6] SOM_score: 0.5569, Reaction_score: 0.0043, Score: 0.0492
[3A4] SOM_score: 0.7821, Reaction_score: 0.0043, Score: 0.0583


$$$$

     RDKit          2D

 57 60  0  0  0  0  0  0  0  0999 V2000
    2.1595   -1.8121    0.0000 C   0  0  0  0  0  0  0  0  0  7  0  0
    0.7500   -1.2990    0.0000 N   0  0  0  0  0  4  0  0  0  3  0  0
    1.5000    0.0000    0.0000 C   0  0  0  0  0  0  0  0  0  5  0  0
   -0.7500   -1.2990    0.0000 C   0  0  0  0  0  0  0  0  0  6  0  0
    0.4895   -2.7762    0.0000 O   0  0  0  0  0  1  0  0  0 31  0  0
    2.6726   -0.4025    0.0000 C   0  0  0  0  0  0  0  0  0 11  0  0
    3.5691   -2.3251    0.0000 C   0  0  0  0  0  0  0  0  0 12  0  0
    1.6465   -3.2216    0.0000 H   0  0  0  0  0  0  0  0  0  0  0  0
    1.7084    0.7465    0.0000 C   0  0  0  0  0  0  0  0  0 14  0  0
    4.1498   -0.1421    0.0000 C   0  0  0  0  0  0  0  0  0 16  0  0
    3.8296   -3.8023    0.0000 C   0  0  0  0  0  0  0  0  0 15  0  0
    4.7181   -1.3609    0.0000 C   0  0  0  0  0  0  0  0  0 17  0  0
    2.2214    2.1561    0.0000 C   0  0  0  0  0  0  0  0  0 18  0  0
    0.2312    0.4861    0.0000 H   0  0  0  0  0  0  0  0  0  0  0  0
    4.6628    1.2675    0.0000 C   0  0  0  0  0  0  0  0  0 20  0  0
    4.7947   -0.6106    0.0000 H   0  0  0  0  0  0  0  0  0  0  0  0
    5.2391   -4.3153    0.0000 C   0  0  0  0  0  0  0  0  0 19  0  0
    2.6805   -4.7665    0.0000 H   0  0  0  0  0  0  0  0  0  0  0  0
    6.1277   -1.8739    0.0000 C   0  0  0  0  0  0  0  0  0 21  0  0
    4.8229    0.1354    0.0000 H   0  0  0  0  0  0  0  0  0  0  0  0
    3.6986    2.4165    0.0000 C   0  0  0  0  0  0  0  0  0 23  0  0
    1.2572    3.3051    0.0000 H   0  0  0  0  0  0  0  0  0  0  0  0
    6.1400    1.5280    0.0000 H   0  0  0  0  0  0  0  0  0  0  0  0
    6.3882   -3.3512    0.0000 C   0  0  0  0  0  0  0  0  0 24  0  0
    5.4996   -5.7926    0.0000 H   0  0  0  0  0  0  0  0  0  0  0  0
    7.2768   -0.9098    0.0000 H   0  0  0  0  0  0  0  0  0  0  0  0
    4.2117    3.8261    0.0000 F   0  0  0  0  0  0  0  0  0  1  0  0
    7.7977   -3.8642    0.0000 F   0  0  0  0  0  0  0  0  0  2  0  0
    0.7500    1.2990    0.0000 C   0  0  0  0  0  0  0  0  0  8  0  0
    2.6491    0.9642    0.0000 H   0  0  0  0  0  0  0  0  0  0  0  0
    2.8482   -0.6575    0.0000 H   0  0  0  0  0  0  0  0  0  0  0  0
   -0.7500    1.2990    0.0000 N   0  0  0  0  0  0  0  0  0  4  0  0
    0.6715    2.7970    0.0000 H   0  0  0  0  0  0  0  0  0  0  0  0
    1.9935    2.1379    0.0000 H   0  0  0  0  0  0  0  0  0  0  0  0
   -1.5000    2.5981    0.0000 C   0  0  0  0  0  0  0  0  0 10  0  0
   -1.5000    0.0000    0.0000 C   0  0  0  0  0  0  0  0  0  9  0  0
   -2.2500    3.8971    0.0000 C   0  0  0  0  0  0  0  0  0 13  0  0
   -0.3021    3.5008    0.0000 H   0  0  0  0  0  0  0  0  0  0  0  0
   -2.8808    2.0120    0.0000 H   0  0  0  0  0  0  0  0  0  0  0  0
   -2.6491   -0.9642    0.0000 H   0  0  0  0  0  0  0  0  0  0  0  0
   -2.7580    0.8169    0.0000 H   0  0  0  0  0  0  0  0  0  0  0  0
   -3.7500    3.8971    0.0000 C   0  0  0  0  0  0  0  0  0 22  0  0
   -1.5000    5.1962    0.0000 H   0  0  0  0  0  0  0  0  0  0  0  0
   -4.5000    5.1962    0.0000 C   0  0  0  0  0  0  0  0  0 25  0  0
   -4.5000    2.5981    0.0000 H   0  0  0  0  0  0  0  0  0  0  0  0
   -3.7500    6.4952    0.0000 C   0  0  0  0  0  0  0  0  0 26  0  0
   -6.0000    5.1962    0.0000 C   0  0  0  0  0  0  0  0  0 27  0  0
   -4.5000    7.7942    0.0000 C   0  0  0  0  0  0  0  0  0 28  0  0
   -2.2500    6.4952    0.0000 H   0  0  0  0  0  0  0  0  0  0  0  0
   -6.7500    6.4952    0.0000 C   0  0  0  0  0  0  0  0  0 29  0  0
   -6.7500    3.8971    0.0000 H   0  0  0  0  0  0  0  0  0  0  0  0
   -6.0000    7.7942    0.0000 C   0  0  0  0  0  0  0  0  0 30  0  0
   -3.7500    9.0933    0.0000 H   0  0  0  0  0  0  0  0  0  0  0  0
   -8.2500    6.4952    0.0000 H   0  0  0  0  0  0  0  0  0  0  0  0
   -6.7500    9.0933    0.0000 H   0  0  0  0  0  0  0  0  0  0  0  0
   -0.4895   -2.7762    0.0000 H   0  0  0  0  0  0  0  0  0  0  0  0
   -2.1595   -1.8121    0.0000 H   0  0  0  0  0  0  0  0  0  0  0  0
  1  2  1  0
  2  3  1  0
  2  4  1  0
  2  5  1  0
  6  1  1  0
  1  7  1  0
  1  8  1  1
  9  6  2  0
  6 10  1  0
  7 11  2  0
 12  7  1  0
 13  9  1  0
  9 14  1  0
 10 15  2  0
 10 16  1  0
 11 17  1  0
 11 18  1  0
 19 12  2  0
 12 20  1  0
 21 13  2  0
 13 22  1  0
 15 21  1  0
 15 23  1  0
 17 24  2  0
 17 25  1  0
 24 19  1  0
 19 26  1  0
 27 21  1  0
 24 28  1  0
  3 29  1  0
  3 30  1  0
  3 31  1  0
 29 32  1  0
 29 33  1  0
 29 34  1  0
 32 35  1  0
 32 36  1  0
 35 37  1  0
 35 38  1  0
 35 39  1  0
 36  4  1  0
 36 40  1  0
 36 41  1  0
 37 42  2  0
 37 43  1  0
 42 44  1  0
 42 45  1  0
 44 46  2  0
 47 44  1  0
 46 48  1  0
 46 49  1  0
 50 47  2  0
 47 51  1  0
 48 52  2  0
 48 53  1  0
 52 50  1  0
 50 54  1  0
 52 55  1  0
  4 56  1  0
  4 57  1  0
M  CHG  2   2   1   5  -1
M  END
>  <SMILES>  (8) 
[O-][N+]1(C(c2ccc(F)cc2)c2ccc(F)cc2)CCN(CC=Cc2ccccc2)CC1

>  <Molecular Weight>  (8) 
420.5

>  <Substrate_ID>  (8) 
MOL0081

>  <Substrate>  (8) 


>  <Substrate_SMILES>  (8) 
Fc1ccc(C(c2ccc(F)cc2)N2CCN(CC=Cc3ccccc3)CC2)cc1

>  <Reaction>  (8) 
N-oxidation_(tertiary_N),N-oxidation

>  <Score>  (8) 
0.043

>  <Reaction_Score>  (8) 
0.0043

>  <Bond_Score>  (8) 
0.4255

>  <Rank>  (8) 
5

>  <Subtype>  (8) 
2C8, 2D6, 3A4

>  <Subtype_Scores>  (8) 
[2C8] SOM_score: 0.1109, Reaction_score: 0.0043, Score: 0.0220
[2D6] SOM_score: 0.1638, Reaction_score: 0.0043, Score: 0.0267
[3A4] SOM_score: 0.4255, Reaction_score: 0.0043, Score: 0.0430


$$$$
