
     RDKit          2D

 55 59  0  0  0  0  0  0  0  0999 V2000
   -0.4086    3.6844    0.0000 C   0  0  0  0  0  0  0  0  0 29  0  0
   -0.0967    5.1517    0.0000 N   0  0  0  0  0  0  0  0  0  4  0  0
   -1.2114    6.1554    0.0000 C   0  0  0  0  0  0  0  0  0 19  0  0
    0.7062    2.6807    0.0000 C   0  0  0  0  0  0  0  0  0 16  0  0
   -1.8351    3.2209    0.0000 C   0  0  0  0  0  0  0  0  0 22  0  0
    0.6926    4.1980    0.0000 H   0  0  0  0  0  0  0  0  0  0  0  0
    0.3943    1.2135    0.0000 C   0  0  0  0  0  0  0  0  0 23  0  0
    2.0969    2.1188    0.0000 H   0  0  0  0  0  0  0  0  0  0  0  0
    1.4708    3.6250    0.0000 H   0  0  0  0  0  0  0  0  0  0  0  0
   -2.9499    4.2246    0.0000 C   0  0  0  0  0  0  0  0  0  9  0  0
   -2.1470    1.7537    0.0000 C   0  0  0  0  0  0  0  0  0 24  0  0
    1.2760    0.0000    0.0000 C   0  0  0  0  0  0  0  0  0 13  0  0
   -1.0323    0.7500    0.0000 C   0  0  0  0  0  0  0  0  0 25  0  0
   -2.6380    5.6918    0.0000 C   0  0  0  0  0  0  0  0  0 28  0  0
   -4.3764    3.7611    0.0000 H   0  0  0  0  0  0  0  0  0  0  0  0
   -3.4593    1.0134    0.0000 C   0  0  0  0  0  0  0  0  0 11  0  0
    0.3943   -1.2135    0.0000 N   0  0  0  0  0  0  0  0  0  5  0  0
    2.7760    0.0000    0.0000 H   0  0  0  0  0  0  0  0  0  0  0  0
   -1.0323   -0.7500    0.0000 C   0  0  0  0  0  0  0  0  0 26  0  0
   -2.8467    7.1772    0.0000 C   0  0  0  0  0  0  0  0  0 20  0  0
   -3.8484    5.5859    0.0000 H   0  0  0  0  0  0  0  0  0  0  0  0
   -3.6161   -0.4784    0.0000 C   0  0  0  0  0  0  0  0  0 10  0  0
   -4.6729    1.8950    0.0000 H   0  0  0  0  0  0  0  0  0  0  0  0
    0.8578   -2.6401    0.0000 C   0  0  0  0  0  0  0  0  0 21  0  0
   -2.4026   -1.3601    0.0000 C   0  0  0  0  0  0  0  0  0 12  0  0
   -2.1509    7.8732    0.0000 O   0  0  0  0  0  0  0  0  0  1  0  0
   -4.2375    7.7391    0.0000 N   0  0  0  0  0  0  0  0  0  3  0  0
   -4.9864   -1.0885    0.0000 H   0  0  0  0  0  0  0  0  0  0  0  0
    2.3250   -2.9520    0.0000 O   0  0  0  0  0  0  0  0  0  2  0  0
   -0.1459   -3.7548    0.0000 C   0  0  0  0  0  0  0  0  0 27  0  0
   -2.5594   -2.8519    0.0000 H   0  0  0  0  0  0  0  0  0  0  0  0
   -4.4463    9.2245    0.0000 C   0  0  0  0  0  0  0  0  0 17  0  0
   -5.4195    6.8157    0.0000 C   0  0  0  0  0  0  0  0  0 18  0  0
   -0.7078   -5.1456    0.0000 C   0  0  0  0  0  0  0  0  0 14  0  0
    0.7776   -4.9368    0.0000 C   0  0  0  0  0  0  0  0  0 15  0  0
   -1.4179   -2.9599    0.0000 H   0  0  0  0  0  0  0  0  0  0  0  0
   -4.6550   10.7100    0.0000 C   0  0  0  0  0  0  0  0  0  6  0  0
   -5.9317    9.0158    0.0000 H   0  0  0  0  0  0  0  0  0  0  0  0
   -2.9609    9.4333    0.0000 H   0  0  0  0  0  0  0  0  0  0  0  0
   -6.6016    5.8922    0.0000 C   0  0  0  0  0  0  0  0  0  7  0  0
   -6.3430    7.9977    0.0000 H   0  0  0  0  0  0  0  0  0  0  0  0
   -4.7938    5.7742    0.0000 H   0  0  0  0  0  0  0  0  0  0  0  0
   -2.1750   -4.8337    0.0000 H   0  0  0  0  0  0  0  0  0  0  0  0
   -0.7601   -6.6447    0.0000 H   0  0  0  0  0  0  0  0  0  0  0  0
    1.2411   -6.3634    0.0000 H   0  0  0  0  0  0  0  0  0  0  0  0
    2.1020   -4.2326    0.0000 H   0  0  0  0  0  0  0  0  0  0  0  0
   -3.1696   10.9187    0.0000 H   0  0  0  0  0  0  0  0  0  0  0  0
   -6.1404   10.5012    0.0000 H   0  0  0  0  0  0  0  0  0  0  0  0
   -4.8638   12.1954    0.0000 H   0  0  0  0  0  0  0  0  0  0  0  0
   -7.5250    7.0742    0.0000 H   0  0  0  0  0  0  0  0  0  0  0  0
   -5.6781    4.7101    0.0000 H   0  0  0  0  0  0  0  0  0  0  0  0
   -7.7836    4.9687    0.0000 H   0  0  0  0  0  0  0  0  0  0  0  0
   -1.5641    7.0742    0.0000 H   0  0  0  0  0  0  0  0  0  0  0  0
   -0.0294    7.0789    0.0000 H   0  0  0  0  0  0  0  0  0  0  0  0
    1.3299    5.6152    0.0000 H   0  0  0  0  0  0  0  0  0  0  0  0
  1  2  1  0
  2  3  1  0
  4  1  1  0
  1  5  1  0
  1  6  1  1
  7  4  1  0
  4  8  1  0
  4  9  1  0
 10  5  2  0
  5 11  1  0
 12  7  2  0
  7 13  1  0
 14 10  1  0
 10 15  1  0
 11 16  1  0
 13 11  2  0
 17 12  1  0
 12 18  1  0
 13 19  1  0
 20 14  1  0
  3 14  1  0
 14 21  1  6
 16 22  2  0
 16 23  1  0
 19 17  1  0
 17 24  1  0
 25 19  2  0
 26 20  2  0
 20 27  1  0
 22 25  1  0
 22 28  1  0
 24 29  2  0
 24 30  1  0
 25 31  1  0
 27 32  1  0
 27 33  1  0
 30 34  1  0
 35 30  1  0
 30 36  1  0
 32 37  1  0
 32 38  1  0
 32 39  1  0
 33 40  1  0
 33 41  1  0
 33 42  1  0
 34 35  1  0
 34 43  1  0
 34 44  1  0
 35 45  1  0
 35 46  1  0
 37 47  1  0
 37 48  1  0
 37 49  1  0
 40 50  1  0
 40 51  1  0
 40 52  1  0
  3 53  1  0
  3 54  1  0
  2 55  1  0
M  END
>  <SMILES>  (1) 
CCN(CC)C(=O)C1C=C2c3cccc4c3c(cn4C(=O)C3CC3)CC2NC1

>  <Molecular Weight>  (1) 
377.5

>  <Substrate_ID>  (1) 
MOL0072

>  <Substrate>  (1) 


>  <Substrate_SMILES>  (1) 
CCN(CC)C(=O)C1C=C2c3cccc4c3c(cn4C(=O)C3CC3)CC2N(C)C1

>  <Reaction>  (1) 
N-demethylation_(R-N(CR)CH3),N-demethylation_(tertiary_amine)

>  <Score>  (1) 
0.766

>  <Reaction_Score>  (1) 
0.7587

>  <Bond_Score>  (1) 
0.7733

>  <Rank>  (1) 
1

>  <Subtype>  (1) 
2C8, 2C9, 2C19, 2D6, 3A4

>  <Subtype_Scores>  (1) 
[2C8] SOM_score: 0.3990, Reaction_score: 0.7587, Score: 0.5502
[2C9] SOM_score: 0.2699, Reaction_score: 0.7587, Score: 0.4525
[2C19] SOM_score: 0.3463, Reaction_score: 0.7587, Score: 0.5126
[2D6] SOM_score: 0.4405, Reaction_score: 0.7587, Score: 0.5781
[3A4] SOM_score: 0.7733, Reaction_score: 0.7587, Score: 0.7660


$$$$

     RDKit          2D

 52 56  0  0  0  0  0  0  0  0999 V2000
   -4.2375    7.7391    0.0000 N   0  0  0  0  0  0  0  0  0  3  0  0
   -2.8467    7.1772    0.0000 C   0  0  0  0  0  0  0  0  0 20  0  0
   -4.4463    9.2245    0.0000 C   0  0  0  0  0  0  0  0  0 18  0  0
   -2.1509    7.8732    0.0000 O   0  0  0  0  0  0  0  0  0  1  0  0
   -2.6380    5.6918    0.0000 C   0  0  0  0  0  0  0  0  0 28  0  0
   -4.6550   10.7100    0.0000 C   0  0  0  0  0  0  0  0  0  7  0  0
   -2.9609    9.4333    0.0000 H   0  0  0  0  0  0  0  0  0  0  0  0
   -5.9317    9.0158    0.0000 H   0  0  0  0  0  0  0  0  0  0  0  0
   -2.9499    4.2246    0.0000 C   0  0  0  0  0  0  0  0  0  9  0  0
   -1.2114    6.1554    0.0000 C   0  0  0  0  0  0  0  0  0 19  0  0
   -4.1371    5.7442    0.0000 H   0  0  0  0  0  0  0  0  0  0  0  0
   -4.8638   12.1954    0.0000 H   0  0  0  0  0  0  0  0  0  0  0  0
   -3.1696   10.9187    0.0000 H   0  0  0  0  0  0  0  0  0  0  0  0
   -6.1404   10.5012    0.0000 H   0  0  0  0  0  0  0  0  0  0  0  0
   -1.8351    3.2209    0.0000 C   0  0  0  0  0  0  0  0  0 22  0  0
   -4.3764    3.7611    0.0000 H   0  0  0  0  0  0  0  0  0  0  0  0
   -0.0967    5.1517    0.0000 N   0  0  0  0  0  0  0  0  0  4  0  0
   -0.1508    7.2160    0.0000 H   0  0  0  0  0  0  0  0  0  0  0  0
   -1.5641    7.0742    0.0000 H   0  0  0  0  0  0  0  0  0  0  0  0
   -2.1470    1.7537    0.0000 C   0  0  0  0  0  0  0  0  0 24  0  0
   -0.4086    3.6844    0.0000 C   0  0  0  0  0  0  0  0  0 29  0  0
    1.3299    5.6152    0.0000 C   0  0  0  0  0  0  0  0  0  8  0  0
   -3.4593    1.0134    0.0000 C   0  0  0  0  0  0  0  0  0 11  0  0
   -1.0323    0.7500    0.0000 C   0  0  0  0  0  0  0  0  0 25  0  0
    0.7062    2.6807    0.0000 C   0  0  0  0  0  0  0  0  0 16  0  0
    0.8754    4.1016    0.0000 H   0  0  0  0  0  0  0  0  0  0  0  0
    2.7565    6.0787    0.0000 H   0  0  0  0  0  0  0  0  0  0  0  0
    1.0437    7.0876    0.0000 H   0  0  0  0  0  0  0  0  0  0  0  0
    2.0454    4.4704    0.0000 H   0  0  0  0  0  0  0  0  0  0  0  0
   -3.6161   -0.4784    0.0000 C   0  0  0  0  0  0  0  0  0 10  0  0
   -4.6729    1.8950    0.0000 H   0  0  0  0  0  0  0  0  0  0  0  0
    0.3943    1.2135    0.0000 C   0  0  0  0  0  0  0  0  0 23  0  0
   -1.0323   -0.7500    0.0000 C   0  0  0  0  0  0  0  0  0 26  0  0
    2.0969    2.1188    0.0000 H   0  0  0  0  0  0  0  0  0  0  0  0
    1.5802    3.5247    0.0000 H   0  0  0  0  0  0  0  0  0  0  0  0
   -2.4026   -1.3601    0.0000 C   0  0  0  0  0  0  0  0  0 12  0  0
   -4.9864   -1.0885    0.0000 H   0  0  0  0  0  0  0  0  0  0  0  0
    1.2760    0.0000    0.0000 C   0  0  0  0  0  0  0  0  0 13  0  0
    0.3943   -1.2135    0.0000 N   0  0  0  0  0  0  0  0  0  5  0  0
   -2.5594   -2.8519    0.0000 H   0  0  0  0  0  0  0  0  0  0  0  0
    2.7760    0.0000    0.0000 H   0  0  0  0  0  0  0  0  0  0  0  0
    0.8578   -2.6401    0.0000 C   0  0  0  0  0  0  0  0  0 21  0  0
    2.3250   -2.9520    0.0000 O   0  0  0  0  0  0  0  0  0  2  0  0
   -0.1459   -3.7548    0.0000 C   0  0  0  0  0  0  0  0  0 27  0  0
   -0.7078   -5.1456    0.0000 C   0  0  0  0  0  0  0  0  0 14  0  0
    0.7776   -4.9368    0.0000 C   0  0  0  0  0  0  0  0  0 15  0  0
   -1.4179   -2.9599    0.0000 H   0  0  0  0  0  0  0  0  0  0  0  0
   -2.1750   -4.8337    0.0000 H   0  0  0  0  0  0  0  0  0  0  0  0
   -0.7601   -6.6447    0.0000 H   0  0  0  0  0  0  0  0  0  0  0  0
    1.2411   -6.3634    0.0000 H   0  0  0  0  0  0  0  0  0  0  0  0
    2.1020   -4.2326    0.0000 H   0  0  0  0  0  0  0  0  0  0  0  0
   -5.4195    6.8157    0.0000 H   0  0  0  0  0  0  0  0  0  0  0  0
  2  1  1  0
  1  3  1  0
  4  2  2  0
  2  5  1  0
  3  6  1  0
  3  7  1  0
  3  8  1  0
  5  9  1  0
 10  5  1  0
  5 11  1  6
  6 12  1  0
  6 13  1  0
  6 14  1  0
  9 15  2  0
  9 16  1  0
 17 10  1  0
 10 18  1  0
 10 19  1  0
 15 20  1  0
 21 15  1  0
 21 17  1  0
 17 22  1  0
 20 23  1  0
 24 20  2  0
 25 21  1  0
 21 26  1  1
 22 27  1  0
 22 28  1  0
 22 29  1  0
 23 30  2  0
 23 31  1  0
 32 24  1  0
 24 33  1  0
 32 25  1  0
 25 34  1  0
 25 35  1  0
 30 36  1  0
 30 37  1  0
 38 32  2  0
 36 33  2  0
 33 39  1  0
 36 40  1  0
 39 38  1  0
 38 41  1  0
 39 42  1  0
 42 43  2  0
 42 44  1  0
 44 45  1  0
 46 44  1  0
 44 47  1  0
 45 46  1  0
 45 48  1  0
 45 49  1  0
 46 50  1  0
 46 51  1  0
  1 52  1  0
M  END
>  <SMILES>  (2) 
CCNC(=O)C1C=C2c3cccc4c3c(cn4C(=O)C3CC3)CC2N(C)C1

>  <Molecular Weight>  (2) 
363.5

>  <Substrate_ID>  (2) 
MOL0072

>  <Substrate>  (2) 


>  <Substrate_SMILES>  (2) 
CCN(CC)C(=O)C1C=C2c3cccc4c3c(cn4C(=O)C3CC3)CC2N(C)C1

>  <Reaction>  (2) 
N-dealkylation_(tertiaryN-CH2-alkyl)

>  <Score>  (2) 
0.668

>  <Reaction_Score>  (2) 
0.6441

>  <Bond_Score>  (2) 
0.6927

>  <Rank>  (2) 
2

>  <Subtype>  (2) 
2C8, 2C9, 2C19, 2D6, 3A4

>  <Subtype_Scores>  (2) 
[2C8] SOM_score: 0.4358, Reaction_score: 0.6441, Score: 0.5298
[2C9] SOM_score: 0.2319, Reaction_score: 0.6441, Score: 0.3865
[2C19] SOM_score: 0.2985, Reaction_score: 0.6441, Score: 0.4385
[2D6] SOM_score: 0.3137, Reaction_score: 0.6441, Score: 0.4495
[3A4] SOM_score: 0.6927, Reaction_score: 0.6441, Score: 0.6680


$$$$
