
     RDKit          2D

 64 67  0  0  0  0  0  0  0  0999 V2000
   -0.4086    3.6844    0.0000 C   0  0  0  0  0  0  0  0  0 24  0  0
   -1.8351    3.2209    0.0000 N   0  0  0  0  0  0  0  0  0 12  0  0
   -2.1470    1.7537    0.0000 C   0  0  0  0  0  0  0  0  0 25  0  0
    0.7062    2.6807    0.0000 C   0  0  0  0  0  0  0  0  0 20  0  0
    0.7735    4.6079    0.0000 H   0  0  0  0  0  0  0  0  0  0  0  0
   -1.1128    5.0089    0.0000 H   0  0  0  0  0  0  0  0  0  0  0  0
    0.3943    1.2135    0.0000 C   0  0  0  0  0  0  0  0  0 33  0  0
    2.0969    2.1188    0.0000 H   0  0  0  0  0  0  0  0  0  0  0  0
    1.5010    3.9528    0.0000 H   0  0  0  0  0  0  0  0  0  0  0  0
   -1.0323    0.7500    0.0000 C   0  0  0  0  0  0  0  0  0 34  0  0
    1.2760    0.0000    0.0000 N   0  0  0  0  0  0  0  0  0  8  0  0
   -1.0323   -0.7500    0.0000 S   0  0  0  0  0  0  0  0  0  2  0  0
    0.3943   -1.2135    0.0000 C   0  0  0  0  0  0  0  0  0 32  0  0
    0.8578   -2.6401    0.0000 C   0  0  0  0  0  0  0  0  0 28  0  0
   -0.1459   -3.7548    0.0000 N   0  0  0  0  0  0  0  0  0 11  0  0
    2.1783   -2.9208    0.0000 O   0  0  0  0  0  0  0  0  0  5  0  0
    0.3177   -5.1814    0.0000 C   0  0  0  0  0  0  0  0  0 37  0  0
   -1.0764   -3.4344    0.0000 H   0  0  0  0  0  0  0  0  0  0  0  0
   -1.1677   -5.3902    0.0000 C   0  0  0  0  0  0  0  0  0 23  0  0
    1.2411   -6.3634    0.0000 C   0  0  0  0  0  0  0  0  0 36  0  0
    1.1238   -4.6169    0.0000 H   0  0  0  0  0  0  0  0  0  0  0  0
   -1.7297   -6.7809    0.0000 C   0  0  0  0  0  0  0  0  0 35  0  0
   -2.5860   -4.9018    0.0000 H   0  0  0  0  0  0  0  0  0  0  0  0
   -1.2535   -4.4098    0.0000 H   0  0  0  0  0  0  0  0  0  0  0  0
    2.2448   -5.2487    0.0000 N   0  0  0  0  0  0  0  0  0 10  0  0
    0.6792   -7.7542    0.0000 C   0  0  0  0  0  0  0  0  0 22  0  0
    2.5132   -7.1583    0.0000 H   0  0  0  0  0  0  0  0  0  0  0  0
   -0.8062   -7.9630    0.0000 C   0  0  0  0  0  0  0  0  0 21  0  0
   -2.7334   -7.8957    0.0000 C   0  0  0  0  0  0  0  0  0 29  0  0
   -2.8954   -5.8369    0.0000 H   0  0  0  0  0  0  0  0  0  0  0  0
    3.7121   -5.5606    0.0000 C   0  0  0  0  0  0  0  0  0 27  0  0
    2.0928   -4.4662    0.0000 H   0  0  0  0  0  0  0  0  0  0  0  0
    2.1465   -8.0661    0.0000 H   0  0  0  0  0  0  0  0  0  0  0  0
    0.6269   -9.2533    0.0000 H   0  0  0  0  0  0  0  0  0  0  0  0
   -0.3426   -9.3895    0.0000 H   0  0  0  0  0  0  0  0  0  0  0  0
   -2.0349   -8.8234    0.0000 H   0  0  0  0  0  0  0  0  0  0  0  0
   -2.4472   -9.3681    0.0000 O   0  0  0  0  0  0  0  0  0  6  0  0
   -4.2006   -7.5838    0.0000 N   0  0  0  0  0  0  0  0  0 13  0  0
    4.7158   -4.4459    0.0000 C   0  0  0  0  0  0  0  0  0 26  0  0
    4.1756   -6.9872    0.0000 O   0  0  0  0  0  0  0  0  0  4  0  0
   -5.2043   -8.6985    0.0000 C   0  0  0  0  0  0  0  0  0 15  0  0
   -4.6641   -6.1572    0.0000 C   0  0  0  0  0  0  0  0  0 16  0  0
    6.1830   -4.7577    0.0000 N   0  0  0  0  0  0  0  0  0  9  0  0
    4.2522   -3.0193    0.0000 O   0  0  0  0  0  0  0  0  0  3  0  0
   -6.2080   -9.8132    0.0000 H   0  0  0  0  0  0  0  0  0  0  0  0
   -6.3190   -7.6948    0.0000 H   0  0  0  0  0  0  0  0  0  0  0  0
   -4.0896   -9.7022    0.0000 H   0  0  0  0  0  0  0  0  0  0  0  0
   -5.1276   -4.7306    0.0000 H   0  0  0  0  0  0  0  0  0  0  0  0
   -6.0907   -6.6207    0.0000 H   0  0  0  0  0  0  0  0  0  0  0  0
   -3.3921   -5.3623    0.0000 H   0  0  0  0  0  0  0  0  0  0  0  0
    7.1867   -3.6430    0.0000 C   0  0  0  0  0  0  0  0  0 31  0  0
    6.6465   -6.1843    0.0000 H   0  0  0  0  0  0  0  0  0  0  0  0
    8.6539   -3.9549    0.0000 C   0  0  0  0  0  0  0  0  0 19  0  0
    6.7232   -2.2164    0.0000 N   0  0  0  0  0  0  0  0  0  7  0  0
    9.6576   -2.8402    0.0000 C   0  0  0  0  0  0  0  0  0 17  0  0
    9.1174   -5.3815    0.0000 H   0  0  0  0  0  0  0  0  0  0  0  0
    7.7268   -1.1017    0.0000 C   0  0  0  0  0  0  0  0  0 18  0  0
    9.1941   -1.4136    0.0000 C   0  0  0  0  0  0  0  0  0 30  0  0
   11.1248   -3.1520    0.0000 H   0  0  0  0  0  0  0  0  0  0  0  0
    7.2633    0.3249    0.0000 H   0  0  0  0  0  0  0  0  0  0  0  0
   10.1978   -0.2989    0.0000 Cl  0  0  0  0  0  0  0  0  0  1  0  0
   -3.5378    2.3156    0.0000 H   0  0  0  0  0  0  0  0  0  0  0  0
   -2.9419    0.4816    0.0000 H   0  0  0  0  0  0  0  0  0  0  0  0
   -2.9499    4.2246    0.0000 H   0  0  0  0  0  0  0  0  0  0  0  0
  1  2  1  0
  2  3  1  0
  4  1  1  0
  1  5  1  0
  1  6  1  0
  7  4  1  0
  4  8  1  0
  4  9  1  0
 10  7  2  0
  7 11  1  0
 12 10  1  0
  3 10  1  0
 11 13  2  0
 13 12  1  0
 14 13  1  0
 15 14  1  0
 14 16  2  0
 17 15  1  0
 15 18  1  0
 19 17  1  0
 17 20  1  0
 17 21  1  6
 22 19  1  0
 19 23  1  0
 19 24  1  0
 25 20  1  0
 20 26  1  0
 20 27  1  6
 28 22  1  0
 22 29  1  0
 22 30  1  1
 31 25  1  0
 25 32  1  0
 26 28  1  0
 26 33  1  0
 26 34  1  0
 28 35  1  0
 28 36  1  0
 29 37  2  0
 29 38  1  0
 39 31  1  0
 31 40  2  0
 38 41  1  0
 38 42  1  0
 43 39  1  0
 39 44  2  0
 41 45  1  0
 41 46  1  0
 41 47  1  0
 42 48  1  0
 42 49  1  0
 42 50  1  0
 51 43  1  0
 43 52  1  0
 53 51  2  0
 51 54  1  0
 55 53  1  0
 53 56  1  0
 54 57  2  0
 58 55  2  0
 55 59  1  0
 57 58  1  0
 57 60  1  0
 61 58  1  0
  3 62  1  0
  3 63  1  0
  2 64  1  0
M  END
>  <SMILES>  (1) 
CN(C)C(=O)C1CCC(NC(=O)C(=O)Nc2ccc(Cl)cn2)C(NC(=O)c2nc3c(s2)CNCC3)C1

>  <Molecular Weight>  (1) 
534.0

>  <Substrate_ID>  (1) 
MOL0066

>  <Substrate>  (1) 


>  <Substrate_SMILES>  (1) 
CN1CCc2nc(C(=O)NC3CC(C(=O)N(C)C)CCC3NC(=O)C(=O)Nc3ccc(Cl)cn3)sc2C1

>  <Reaction>  (1) 
N-demethylation_(R-N(CR)CH3),N-demethylation_(tertiary_amine)

>  <Score>  (1) 
0.7359

>  <Reaction_Score>  (1) 
0.7156

>  <Bond_Score>  (1) 
0.7567

>  <Rank>  (1) 
1

>  <Subtype>  (1) 
2C8, 2C9, 3A4

>  <Subtype_Scores>  (1) 
[2C8] SOM_score: 0.3744, Reaction_score: 0.7156, Score: 0.5176
[2C9] SOM_score: 0.2023, Reaction_score: 0.7156, Score: 0.3805
[3A4] SOM_score: 0.7567, Reaction_score: 0.7156, Score: 0.7359


$$$$

     RDKit          2D

 64 67  0  0  0  0  0  0  0  0999 V2000
    3.4681    9.2138    0.0000 N   0  0  0  0  0  0  0  0  0 13  0  0
    3.0046    7.7872    0.0000 C   0  0  0  0  0  0  0  0  0 29  0  0
    2.4644   10.3285    0.0000 C   0  0  0  0  0  0  0  0  0 16  0  0
    4.0083    6.6725    0.0000 C   0  0  0  0  0  0  0  0  0 35  0  0
    2.0242    7.7015    0.0000 O   0  0  0  0  0  0  0  0  0  6  0  0
    5.3327    5.9683    0.0000 C   0  0  0  0  0  0  0  0  0 21  0  0
    2.7362    5.8776    0.0000 C   0  0  0  0  0  0  0  0  0 23  0  0
    4.9318    7.8545    0.0000 H   0  0  0  0  0  0  0  0  0  0  0  0
    5.3851    4.4692    0.0000 C   0  0  0  0  0  0  0  0  0 22  0  0
    5.7962    7.3949    0.0000 H   0  0  0  0  0  0  0  0  0  0  0  0
    6.8181    5.7596    0.0000 H   0  0  0  0  0  0  0  0  0  0  0  0
    2.7886    4.3786    0.0000 C   0  0  0  0  0  0  0  0  0 37  0  0
    1.2690    5.5658    0.0000 H   0  0  0  0  0  0  0  0  0  0  0  0
    2.2591    6.7384    0.0000 H   0  0  0  0  0  0  0  0  0  0  0  0
    4.1130    3.6744    0.0000 C   0  0  0  0  0  0  0  0  0 36  0  0
    6.8523    4.7811    0.0000 H   0  0  0  0  0  0  0  0  0  0  0  0
    5.8622    3.6085    0.0000 H   0  0  0  0  0  0  0  0  0  0  0  0
    2.3250    2.9520    0.0000 N   0  0  0  0  0  0  0  0  0 11  0  0
    1.3032    4.5873    0.0000 H   0  0  0  0  0  0  0  0  0  0  0  0
    5.1167    2.5596    0.0000 N   0  0  0  0  0  0  0  0  0 10  0  0
    3.6061    2.8308    0.0000 H   0  0  0  0  0  0  0  0  0  0  0  0
    0.8578    2.6401    0.0000 C   0  0  0  0  0  0  0  0  0 28  0  0
    2.8895    2.1458    0.0000 H   0  0  0  0  0  0  0  0  0  0  0  0
    4.6532    1.1331    0.0000 C   0  0  0  0  0  0  0  0  0 27  0  0
    6.0971    2.6454    0.0000 H   0  0  0  0  0  0  0  0  0  0  0  0
   -0.1459    3.7548    0.0000 O   0  0  0  0  0  0  0  0  0  5  0  0
    0.3943    1.2135    0.0000 C   0  0  0  0  0  0  0  0  0 32  0  0
    5.6569    0.0183    0.0000 C   0  0  0  0  0  0  0  0  0 26  0  0
    3.1859    0.8212    0.0000 O   0  0  0  0  0  0  0  0  0  4  0  0
    1.2760    0.0000    0.0000 S   0  0  0  0  0  0  0  0  0  2  0  0
   -1.0323    0.7500    0.0000 N   0  0  0  0  0  0  0  0  0  8  0  0
    5.1933   -1.4082    0.0000 N   0  0  0  0  0  0  0  0  0  9  0  0
    7.1241    0.3302    0.0000 O   0  0  0  0  0  0  0  0  0  3  0  0
    0.3943   -1.2135    0.0000 C   0  0  0  0  0  0  0  0  0 34  0  0
   -1.0323   -0.7500    0.0000 C   0  0  0  0  0  0  0  0  0 33  0  0
    6.1970   -2.5230    0.0000 C   0  0  0  0  0  0  0  0  0 31  0  0
    3.7261   -1.7201    0.0000 H   0  0  0  0  0  0  0  0  0  0  0  0
    0.7062   -2.6807    0.0000 C   0  0  0  0  0  0  0  0  0 25  0  0
   -2.1470   -1.7537    0.0000 C   0  0  0  0  0  0  0  0  0 20  0  0
    5.7335   -3.9496    0.0000 C   0  0  0  0  0  0  0  0  0 19  0  0
    7.6643   -2.2111    0.0000 N   0  0  0  0  0  0  0  0  0  7  0  0
   -0.4086   -3.6844    0.0000 N   0  0  0  0  0  0  0  0  0 12  0  0
    1.6502   -3.8464    0.0000 H   0  0  0  0  0  0  0  0  0  0  0  0
    2.0969   -2.1188    0.0000 H   0  0  0  0  0  0  0  0  0  0  0  0
   -1.8351   -3.2209    0.0000 C   0  0  0  0  0  0  0  0  0 24  0  0
   -2.9419   -0.4816    0.0000 H   0  0  0  0  0  0  0  0  0  0  0  0
   -3.5378   -2.3156    0.0000 H   0  0  0  0  0  0  0  0  0  0  0  0
    6.7372   -5.0643    0.0000 C   0  0  0  0  0  0  0  0  0 17  0  0
    4.2663   -4.2614    0.0000 H   0  0  0  0  0  0  0  0  0  0  0  0
    8.6679   -3.3258    0.0000 C   0  0  0  0  0  0  0  0  0 18  0  0
   -0.0967   -5.1517    0.0000 C   0  0  0  0  0  0  0  0  0 14  0  0
   -3.3342   -3.2733    0.0000 H   0  0  0  0  0  0  0  0  0  0  0  0
   -2.2234   -4.6698    0.0000 H   0  0  0  0  0  0  0  0  0  0  0  0
    8.2044   -4.7524    0.0000 C   0  0  0  0  0  0  0  0  0 30  0  0
    6.2737   -6.4909    0.0000 H   0  0  0  0  0  0  0  0  0  0  0  0
   10.1352   -3.0139    0.0000 H   0  0  0  0  0  0  0  0  0  0  0  0
    0.2152   -6.6189    0.0000 H   0  0  0  0  0  0  0  0  0  0  0  0
   -1.5149   -5.6401    0.0000 H   0  0  0  0  0  0  0  0  0  0  0  0
    1.3976   -5.0210    0.0000 H   0  0  0  0  0  0  0  0  0  0  0  0
    9.2081   -5.8671    0.0000 Cl  0  0  0  0  0  0  0  0  0  1  0  0
    1.4607   11.4433    0.0000 H   0  0  0  0  0  0  0  0  0  0  0  0
    3.5791   11.3322    0.0000 H   0  0  0  0  0  0  0  0  0  0  0  0
    1.3497    9.3249    0.0000 H   0  0  0  0  0  0  0  0  0  0  0  0
    4.9353    9.5257    0.0000 H   0  0  0  0  0  0  0  0  0  0  0  0
  1  2  1  0
  1  3  1  0
  4  2  1  0
  2  5  2  0
  6  4  1  0
  4  7  1  0
  4  8  1  6
  9  6  1  0
  6 10  1  0
  6 11  1  0
  7 12  1  0
  7 13  1  0
  7 14  1  0
 15  9  1  0
  9 16  1  0
  9 17  1  0
 12 18  1  0
 12 15  1  0
 12 19  1  1
 20 15  1  0
 15 21  1  1
 18 22  1  0
 18 23  1  0
 24 20  1  0
 20 25  1  0
 22 26  2  0
 22 27  1  0
 28 24  1  0
 24 29  2  0
 27 30  1  0
 31 27  2  0
 32 28  1  0
 28 33  2  0
 30 34  1  0
 35 31  1  0
 36 32  1  0
 32 37  1  0
 34 35  2  0
 38 34  1  0
 35 39  1  0
 40 36  2  0
 36 41  1  0
 42 38  1  0
 38 43  1  0
 38 44  1  0
 39 45  1  0
 39 46  1  0
 39 47  1  0
 48 40  1  0
 40 49  1  0
 41 50  2  0
 45 42  1  0
 42 51  1  0
 45 52  1  0
 45 53  1  0
 54 48  2  0
 48 55  1  0
 50 54  1  0
 50 56  1  0
 51 57  1  0
 51 58  1  0
 51 59  1  0
 60 54  1  0
  3 61  1  0
  3 62  1  0
  3 63  1  0
  1 64  1  0
M  END
>  <SMILES>  (2) 
CNC(=O)C1CCC(NC(=O)C(=O)Nc2ccc(Cl)cn2)C(NC(=O)c2nc3c(s2)CN(C)CC3)C1

>  <Molecular Weight>  (2) 
534.0

>  <Substrate_ID>  (2) 
MOL0066

>  <Substrate>  (2) 


>  <Substrate_SMILES>  (2) 
CN1CCc2nc(C(=O)NC3CC(C(=O)N(C)C)CCC3NC(=O)C(=O)Nc3ccc(Cl)cn3)sc2C1

>  <Reaction>  (2) 
N-demethylation_(tertiary_amine)

>  <Score>  (2) 
0.5643

>  <Reaction_Score>  (2) 
0.5279

>  <Bond_Score>  (2) 
0.6032

>  <Rank>  (2) 
2

>  <Subtype>  (2) 
2C8, 2C9, 3A4

>  <Subtype_Scores>  (2) 
[2C8] SOM_score: 0.2763, Reaction_score: 0.5279, Score: 0.3819
[2C9] SOM_score: 0.1462, Reaction_score: 0.5279, Score: 0.2778
[3A4] SOM_score: 0.6032, Reaction_score: 0.5279, Score: 0.5643


$$$$

     RDKit          2D

 68 71  0  0  0  0  0  0  0  0999 V2000
    0.3943    1.2135    0.0000 C   0  0  0  0  0  0  0  0  0 33  0  0
    0.7062    2.6807    0.0000 C   0  0  0  0  0  0  0  0  0 20  0  0
    1.5010    3.9528    0.0000 O   0  0  0  0  0  0  0  0  0 38  0  0
   -0.4086    3.6844    0.0000 C   0  0  0  0  0  0  0  0  0 24  0  0
   -1.0323    0.7500    0.0000 C   0  0  0  0  0  0  0  0  0 34  0  0
    1.2760    0.0000    0.0000 N   0  0  0  0  0  0  0  0  0  8  0  0
   -1.0323   -0.7500    0.0000 S   0  0  0  0  0  0  0  0  0  2  0  0
   -2.1470    1.7537    0.0000 C   0  0  0  0  0  0  0  0  0 25  0  0
    0.3943   -1.2135    0.0000 C   0  0  0  0  0  0  0  0  0 32  0  0
   -1.8351    3.2209    0.0000 N   0  0  0  0  0  0  0  0  0 12  0  0
   -2.9419    0.4816    0.0000 H   0  0  0  0  0  0  0  0  0  0  0  0
   -3.5959    2.1419    0.0000 H   0  0  0  0  0  0  0  0  0  0  0  0
    0.8578   -2.6401    0.0000 C   0  0  0  0  0  0  0  0  0 28  0  0
   -2.9499    4.2246    0.0000 C   0  0  0  0  0  0  0  0  0 14  0  0
   -0.1459   -3.7548    0.0000 N   0  0  0  0  0  0  0  0  0 11  0  0
    2.1783   -2.9208    0.0000 O   0  0  0  0  0  0  0  0  0  5  0  0
   -4.0646    5.2283    0.0000 H   0  0  0  0  0  0  0  0  0  0  0  0
   -2.0895    5.4534    0.0000 H   0  0  0  0  0  0  0  0  0  0  0  0
   -4.0819    3.2406    0.0000 H   0  0  0  0  0  0  0  0  0  0  0  0
    0.3177   -5.1814    0.0000 C   0  0  0  0  0  0  0  0  0 37  0  0
   -1.0764   -3.4344    0.0000 H   0  0  0  0  0  0  0  0  0  0  0  0
   -1.1677   -5.3902    0.0000 C   0  0  0  0  0  0  0  0  0 23  0  0
    1.2411   -6.3634    0.0000 C   0  0  0  0  0  0  0  0  0 36  0  0
    1.1238   -4.6169    0.0000 H   0  0  0  0  0  0  0  0  0  0  0  0
   -1.7297   -6.7809    0.0000 C   0  0  0  0  0  0  0  0  0 35  0  0
   -2.5860   -4.9018    0.0000 H   0  0  0  0  0  0  0  0  0  0  0  0
   -1.2535   -4.4098    0.0000 H   0  0  0  0  0  0  0  0  0  0  0  0
    2.2448   -5.2487    0.0000 N   0  0  0  0  0  0  0  0  0 10  0  0
    0.6792   -7.7542    0.0000 C   0  0  0  0  0  0  0  0  0 22  0  0
    2.5132   -7.1583    0.0000 H   0  0  0  0  0  0  0  0  0  0  0  0
   -0.8062   -7.9630    0.0000 C   0  0  0  0  0  0  0  0  0 21  0  0
   -2.7334   -7.8957    0.0000 C   0  0  0  0  0  0  0  0  0 29  0  0
   -2.8954   -5.8369    0.0000 H   0  0  0  0  0  0  0  0  0  0  0  0
    3.7121   -5.5606    0.0000 C   0  0  0  0  0  0  0  0  0 27  0  0
    2.0928   -4.4662    0.0000 H   0  0  0  0  0  0  0  0  0  0  0  0
    2.1465   -8.0661    0.0000 H   0  0  0  0  0  0  0  0  0  0  0  0
    0.6269   -9.2533    0.0000 H   0  0  0  0  0  0  0  0  0  0  0  0
   -0.3426   -9.3895    0.0000 H   0  0  0  0  0  0  0  0  0  0  0  0
   -2.0349   -8.8234    0.0000 H   0  0  0  0  0  0  0  0  0  0  0  0
   -2.4472   -9.3681    0.0000 O   0  0  0  0  0  0  0  0  0  6  0  0
   -4.2006   -7.5838    0.0000 N   0  0  0  0  0  0  0  0  0 13  0  0
    4.7158   -4.4459    0.0000 C   0  0  0  0  0  0  0  0  0 26  0  0
    4.1756   -6.9872    0.0000 O   0  0  0  0  0  0  0  0  0  4  0  0
   -5.2043   -8.6985    0.0000 C   0  0  0  0  0  0  0  0  0 15  0  0
   -4.6641   -6.1572    0.0000 C   0  0  0  0  0  0  0  0  0 16  0  0
    6.1830   -4.7577    0.0000 N   0  0  0  0  0  0  0  0  0  9  0  0
    4.2522   -3.0193    0.0000 O   0  0  0  0  0  0  0  0  0  3  0  0
   -6.2080   -9.8132    0.0000 H   0  0  0  0  0  0  0  0  0  0  0  0
   -6.3190   -7.6948    0.0000 H   0  0  0  0  0  0  0  0  0  0  0  0
   -4.0896   -9.7022    0.0000 H   0  0  0  0  0  0  0  0  0  0  0  0
   -5.1276   -4.7306    0.0000 H   0  0  0  0  0  0  0  0  0  0  0  0
   -6.0907   -6.6207    0.0000 H   0  0  0  0  0  0  0  0  0  0  0  0
   -3.3921   -5.3623    0.0000 H   0  0  0  0  0  0  0  0  0  0  0  0
    7.1867   -3.6430    0.0000 C   0  0  0  0  0  0  0  0  0 31  0  0
    6.6465   -6.1843    0.0000 H   0  0  0  0  0  0  0  0  0  0  0  0
    8.6539   -3.9549    0.0000 C   0  0  0  0  0  0  0  0  0 19  0  0
    6.7232   -2.2164    0.0000 N   0  0  0  0  0  0  0  0  0  7  0  0
    9.6576   -2.8402    0.0000 C   0  0  0  0  0  0  0  0  0 17  0  0
    9.1174   -5.3815    0.0000 H   0  0  0  0  0  0  0  0  0  0  0  0
    7.7268   -1.1017    0.0000 C   0  0  0  0  0  0  0  0  0 18  0  0
    9.1941   -1.4136    0.0000 C   0  0  0  0  0  0  0  0  0 30  0  0
   11.1248   -3.1520    0.0000 H   0  0  0  0  0  0  0  0  0  0  0  0
    7.2633    0.3249    0.0000 H   0  0  0  0  0  0  0  0  0  0  0  0
   10.1978   -0.2989    0.0000 Cl  0  0  0  0  0  0  0  0  0  1  0  0
    2.0969    2.1188    0.0000 H   0  0  0  0  0  0  0  0  0  0  0  0
   -0.9461    5.0848    0.0000 H   0  0  0  0  0  0  0  0  0  0  0  0
    0.7735    4.6079    0.0000 H   0  0  0  0  0  0  0  0  0  0  0  0
    3.0001    3.9005    0.0000 H   0  0  0  0  0  0  0  0  0  0  0  0
  1  2  1  0
  2  3  1  0
  2  4  1  0
  5  1  2  0
  1  6  1  0
  7  5  1  0
  8  5  1  0
  6  9  2  0
  9  7  1  0
 10  8  1  0
  8 11  1  0
  8 12  1  0
 13  9  1  0
  4 10  1  0
 10 14  1  0
 15 13  1  0
 13 16  2  0
 14 17  1  0
 14 18  1  0
 14 19  1  0
 20 15  1  0
 15 21  1  0
 22 20  1  0
 20 23  1  0
 20 24  1  6
 25 22  1  0
 22 26  1  0
 22 27  1  0
 28 23  1  0
 23 29  1  0
 23 30  1  6
 31 25  1  0
 25 32  1  0
 25 33  1  1
 34 28  1  0
 28 35  1  0
 29 31  1  0
 29 36  1  0
 29 37  1  0
 31 38  1  0
 31 39  1  0
 32 40  2  0
 32 41  1  0
 42 34  1  0
 34 43  2  0
 41 44  1  0
 41 45  1  0
 46 42  1  0
 42 47  2  0
 44 48  1  0
 44 49  1  0
 44 50  1  0
 45 51  1  0
 45 52  1  0
 45 53  1  0
 54 46  1  0
 46 55  1  0
 56 54  2  0
 54 57  1  0
 58 56  1  0
 56 59  1  0
 57 60  2  0
 61 58  2  0
 58 62  1  0
 60 61  1  0
 60 63  1  0
 64 61  1  0
  2 65  1  0
  4 66  1  0
  4 67  1  0
  3 68  1  0
M  END
>  <SMILES>  (3) 
CN1Cc2sc(C(=O)NC3CC(C(=O)N(C)C)CCC3NC(=O)C(=O)Nc3ccc(Cl)cn3)nc2C(O)C1

>  <Molecular Weight>  (3) 
564.1

>  <Substrate_ID>  (3) 
MOL0066

>  <Substrate>  (3) 


>  <Substrate_SMILES>  (3) 
CN1CCc2nc(C(=O)NC3CC(C(=O)N(C)C)CCC3NC(=O)C(=O)Nc3ccc(Cl)cn3)sc2C1

>  <Reaction>  (3) 
benzylic_hydroxylation_(c-CH2-CR),aliphatic hydroxylation

>  <Score>  (3) 
0.1553

>  <Reaction_Score>  (3) 
0.1464

>  <Bond_Score>  (3) 
0.1648

>  <Rank>  (3) 
3

>  <Subtype>  (3) 
3A4

>  <Subtype_Scores>  (3) 
[3A4] SOM_score: 0.1648, Reaction_score: 0.1464, Score: 0.1553


$$$$

     RDKit          2D

 68 71  0  0  0  0  0  0  0  0999 V2000
    0.3943    1.2135    0.0000 C   0  0  0  0  0  0  0  0  0 34  0  0
    0.7062    2.6807    0.0000 C   0  0  0  0  0  0  0  0  0 25  0  0
    1.5010    3.9528    0.0000 O   0  0  0  0  0  0  0  0  0 38  0  0
   -0.4086    3.6844    0.0000 N   0  0  0  0  0  0  0  0  0 12  0  0
    1.2760    0.0000    0.0000 S   0  0  0  0  0  0  0  0  0  2  0  0
   -1.0323    0.7500    0.0000 C   0  0  0  0  0  0  0  0  0 33  0  0
    0.3943   -1.2135    0.0000 C   0  0  0  0  0  0  0  0  0 32  0  0
   -1.0323   -0.7500    0.0000 N   0  0  0  0  0  0  0  0  0  8  0  0
   -2.1470    1.7537    0.0000 C   0  0  0  0  0  0  0  0  0 20  0  0
    0.8578   -2.6401    0.0000 C   0  0  0  0  0  0  0  0  0 28  0  0
   -1.8351    3.2209    0.0000 C   0  0  0  0  0  0  0  0  0 24  0  0
   -2.9419    0.4816    0.0000 H   0  0  0  0  0  0  0  0  0  0  0  0
   -3.5378    2.3156    0.0000 H   0  0  0  0  0  0  0  0  0  0  0  0
   -0.1459   -3.7548    0.0000 N   0  0  0  0  0  0  0  0  0 11  0  0
    2.1783   -2.9208    0.0000 O   0  0  0  0  0  0  0  0  0  5  0  0
   -3.3342    3.2733    0.0000 H   0  0  0  0  0  0  0  0  0  0  0  0
   -2.2234    4.6698    0.0000 H   0  0  0  0  0  0  0  0  0  0  0  0
    0.3177   -5.1814    0.0000 C   0  0  0  0  0  0  0  0  0 37  0  0
   -1.0764   -3.4344    0.0000 H   0  0  0  0  0  0  0  0  0  0  0  0
   -1.1677   -5.3902    0.0000 C   0  0  0  0  0  0  0  0  0 23  0  0
    1.2411   -6.3634    0.0000 C   0  0  0  0  0  0  0  0  0 36  0  0
    1.1238   -4.6169    0.0000 H   0  0  0  0  0  0  0  0  0  0  0  0
   -1.7297   -6.7809    0.0000 C   0  0  0  0  0  0  0  0  0 35  0  0
   -2.5860   -4.9018    0.0000 H   0  0  0  0  0  0  0  0  0  0  0  0
   -1.2535   -4.4098    0.0000 H   0  0  0  0  0  0  0  0  0  0  0  0
    2.2448   -5.2487    0.0000 N   0  0  0  0  0  0  0  0  0 10  0  0
    0.6792   -7.7542    0.0000 C   0  0  0  0  0  0  0  0  0 22  0  0
    2.5132   -7.1583    0.0000 H   0  0  0  0  0  0  0  0  0  0  0  0
   -0.8062   -7.9630    0.0000 C   0  0  0  0  0  0  0  0  0 21  0  0
   -2.7334   -7.8957    0.0000 C   0  0  0  0  0  0  0  0  0 29  0  0
   -2.8954   -5.8369    0.0000 H   0  0  0  0  0  0  0  0  0  0  0  0
    3.7121   -5.5606    0.0000 C   0  0  0  0  0  0  0  0  0 27  0  0
    2.0928   -4.4662    0.0000 H   0  0  0  0  0  0  0  0  0  0  0  0
    2.1465   -8.0661    0.0000 H   0  0  0  0  0  0  0  0  0  0  0  0
    0.6269   -9.2533    0.0000 H   0  0  0  0  0  0  0  0  0  0  0  0
   -0.3426   -9.3895    0.0000 H   0  0  0  0  0  0  0  0  0  0  0  0
   -2.0349   -8.8234    0.0000 H   0  0  0  0  0  0  0  0  0  0  0  0
   -2.4472   -9.3681    0.0000 O   0  0  0  0  0  0  0  0  0  6  0  0
   -4.2006   -7.5838    0.0000 N   0  0  0  0  0  0  0  0  0 13  0  0
    4.7158   -4.4459    0.0000 C   0  0  0  0  0  0  0  0  0 26  0  0
    4.1756   -6.9872    0.0000 O   0  0  0  0  0  0  0  0  0  4  0  0
   -5.2043   -8.6985    0.0000 C   0  0  0  0  0  0  0  0  0 15  0  0
   -4.6641   -6.1572    0.0000 C   0  0  0  0  0  0  0  0  0 16  0  0
    6.1830   -4.7577    0.0000 N   0  0  0  0  0  0  0  0  0  9  0  0
    4.2522   -3.0193    0.0000 O   0  0  0  0  0  0  0  0  0  3  0  0
   -6.2080   -9.8132    0.0000 H   0  0  0  0  0  0  0  0  0  0  0  0
   -6.3190   -7.6948    0.0000 H   0  0  0  0  0  0  0  0  0  0  0  0
   -4.0896   -9.7022    0.0000 H   0  0  0  0  0  0  0  0  0  0  0  0
   -5.1276   -4.7306    0.0000 H   0  0  0  0  0  0  0  0  0  0  0  0
   -6.0907   -6.6207    0.0000 H   0  0  0  0  0  0  0  0  0  0  0  0
   -3.3921   -5.3623    0.0000 H   0  0  0  0  0  0  0  0  0  0  0  0
    7.1867   -3.6430    0.0000 C   0  0  0  0  0  0  0  0  0 31  0  0
    6.6465   -6.1843    0.0000 H   0  0  0  0  0  0  0  0  0  0  0  0
    8.6539   -3.9549    0.0000 C   0  0  0  0  0  0  0  0  0 19  0  0
    6.7232   -2.2164    0.0000 N   0  0  0  0  0  0  0  0  0  7  0  0
    9.6576   -2.8402    0.0000 C   0  0  0  0  0  0  0  0  0 17  0  0
    9.1174   -5.3815    0.0000 H   0  0  0  0  0  0  0  0  0  0  0  0
    7.7268   -1.1017    0.0000 C   0  0  0  0  0  0  0  0  0 18  0  0
    9.1941   -1.4136    0.0000 C   0  0  0  0  0  0  0  0  0 30  0  0
   11.1248   -3.1520    0.0000 H   0  0  0  0  0  0  0  0  0  0  0  0
    7.2633    0.3249    0.0000 H   0  0  0  0  0  0  0  0  0  0  0  0
   10.1978   -0.2989    0.0000 Cl  0  0  0  0  0  0  0  0  0  1  0  0
    2.0969    2.1188    0.0000 H   0  0  0  0  0  0  0  0  0  0  0  0
   -0.0967    5.1517    0.0000 C   0  0  0  0  0  0  0  0  0 14  0  0
    0.2152    6.6189    0.0000 H   0  0  0  0  0  0  0  0  0  0  0  0
    1.4024    5.2041    0.0000 H   0  0  0  0  0  0  0  0  0  0  0  0
   -1.5149    5.6401    0.0000 H   0  0  0  0  0  0  0  0  0  0  0  0
    3.0001    3.9005    0.0000 H   0  0  0  0  0  0  0  0  0  0  0  0
  1  2  1  0
  2  3  1  0
  2  4  1  0
  5  1  1  0
  1  6  2  0
  7  5  1  0
  6  8  1  0
  6  9  1  0
 10  7  1  0
  8  7  2  0
  9 11  1  0
  9 12  1  0
  9 13  1  0
 14 10  1  0
 10 15  2  0
 11  4  1  0
 11 16  1  0
 11 17  1  0
 18 14  1  0
 14 19  1  0
 20 18  1  0
 18 21  1  0
 18 22  1  6
 23 20  1  0
 20 24  1  0
 20 25  1  0
 26 21  1  0
 21 27  1  0
 21 28  1  6
 29 23  1  0
 23 30  1  0
 23 31  1  1
 32 26  1  0
 26 33  1  0
 27 29  1  0
 27 34  1  0
 27 35  1  0
 29 36  1  0
 29 37  1  0
 30 38  2  0
 30 39  1  0
 40 32  1  0
 32 41  2  0
 39 42  1  0
 39 43  1  0
 44 40  1  0
 40 45  2  0
 42 46  1  0
 42 47  1  0
 42 48  1  0
 43 49  1  0
 43 50  1  0
 43 51  1  0
 52 44  1  0
 44 53  1  0
 54 52  2  0
 52 55  1  0
 56 54  1  0
 54 57  1  0
 55 58  2  0
 59 56  2  0
 56 60  1  0
 58 59  1  0
 58 61  1  0
 62 59  1  0
  2 63  1  0
  4 64  1  0
 64 65  1  0
 64 66  1  0
 64 67  1  0
  3 68  1  0
M  END
>  <SMILES>  (4) 
CN(C)C(=O)C1CCC(NC(=O)C(=O)Nc2ccc(Cl)cn2)C(NC(=O)c2nc3c(s2)C(O)N(C)CC3)C1

>  <Molecular Weight>  (4) 
564.1

>  <Substrate_ID>  (4) 
MOL0066

>  <Substrate>  (4) 


>  <Substrate_SMILES>  (4) 
CN1CCc2nc(C(=O)NC3CC(C(=O)N(C)C)CCC3NC(=O)C(=O)Nc3ccc(Cl)cn3)sc2C1

>  <Reaction>  (4) 
benzylic_hydroxylation_(c-CH2-N),aliphatic hydroxylation

>  <Score>  (4) 
0.1069

>  <Reaction_Score>  (4) 
0.0858

>  <Bond_Score>  (4) 
0.1332

>  <Rank>  (4) 
4

>  <Subtype>  (4) 
3A4

>  <Subtype_Scores>  (4) 
[3A4] SOM_score: 0.1332, Reaction_score: 0.0858, Score: 0.1069


$$$$

     RDKit          2D

 68 71  0  0  0  0  0  0  0  0999 V2000
    0.7062    2.6807    0.0000 C   0  0  0  0  0  0  0  0  0 25  0  0
   -0.4086    3.6844    0.0000 N   0  0  0  0  0  4  0  0  0 12  0  0
    0.7735    4.6079    0.0000 C   0  0  0  0  0  0  0  0  0 14  0  0
   -1.8351    3.2209    0.0000 C   0  0  0  0  0  0  0  0  0 24  0  0
   -1.1128    5.0089    0.0000 O   0  0  0  0  0  1  0  0  0 38  0  0
    0.3943    1.2135    0.0000 C   0  0  0  0  0  0  0  0  0 34  0  0
    2.0969    2.1188    0.0000 H   0  0  0  0  0  0  0  0  0  0  0  0
    1.6502    3.8464    0.0000 H   0  0  0  0  0  0  0  0  0  0  0  0
    1.2760    0.0000    0.0000 S   0  0  0  0  0  0  0  0  0  2  0  0
   -1.0323    0.7500    0.0000 C   0  0  0  0  0  0  0  0  0 33  0  0
    0.3943   -1.2135    0.0000 C   0  0  0  0  0  0  0  0  0 32  0  0
   -1.0323   -0.7500    0.0000 N   0  0  0  0  0  0  0  0  0  8  0  0
   -2.1470    1.7537    0.0000 C   0  0  0  0  0  0  0  0  0 20  0  0
    0.8578   -2.6401    0.0000 C   0  0  0  0  0  0  0  0  0 28  0  0
   -3.5378    2.3156    0.0000 H   0  0  0  0  0  0  0  0  0  0  0  0
   -2.9419    0.4816    0.0000 H   0  0  0  0  0  0  0  0  0  0  0  0
   -0.1459   -3.7548    0.0000 N   0  0  0  0  0  0  0  0  0 11  0  0
    2.1783   -2.9208    0.0000 O   0  0  0  0  0  0  0  0  0  5  0  0
    0.3177   -5.1814    0.0000 C   0  0  0  0  0  0  0  0  0 37  0  0
   -1.0764   -3.4344    0.0000 H   0  0  0  0  0  0  0  0  0  0  0  0
   -1.1677   -5.3902    0.0000 C   0  0  0  0  0  0  0  0  0 23  0  0
    1.2411   -6.3634    0.0000 C   0  0  0  0  0  0  0  0  0 36  0  0
    1.1238   -4.6169    0.0000 H   0  0  0  0  0  0  0  0  0  0  0  0
   -1.7297   -6.7809    0.0000 C   0  0  0  0  0  0  0  0  0 35  0  0
   -2.5860   -4.9018    0.0000 H   0  0  0  0  0  0  0  0  0  0  0  0
   -1.2535   -4.4098    0.0000 H   0  0  0  0  0  0  0  0  0  0  0  0
    2.2448   -5.2487    0.0000 N   0  0  0  0  0  0  0  0  0 10  0  0
    0.6792   -7.7542    0.0000 C   0  0  0  0  0  0  0  0  0 22  0  0
    2.5132   -7.1583    0.0000 H   0  0  0  0  0  0  0  0  0  0  0  0
   -0.8062   -7.9630    0.0000 C   0  0  0  0  0  0  0  0  0 21  0  0
   -2.7334   -7.8957    0.0000 C   0  0  0  0  0  0  0  0  0 29  0  0
   -2.8954   -5.8369    0.0000 H   0  0  0  0  0  0  0  0  0  0  0  0
    3.7121   -5.5606    0.0000 C   0  0  0  0  0  0  0  0  0 27  0  0
    2.0928   -4.4662    0.0000 H   0  0  0  0  0  0  0  0  0  0  0  0
    2.1465   -8.0661    0.0000 H   0  0  0  0  0  0  0  0  0  0  0  0
    0.6269   -9.2533    0.0000 H   0  0  0  0  0  0  0  0  0  0  0  0
   -0.3426   -9.3895    0.0000 H   0  0  0  0  0  0  0  0  0  0  0  0
   -2.0349   -8.8234    0.0000 H   0  0  0  0  0  0  0  0  0  0  0  0
   -2.4472   -9.3681    0.0000 O   0  0  0  0  0  0  0  0  0  6  0  0
   -4.2006   -7.5838    0.0000 N   0  0  0  0  0  0  0  0  0 13  0  0
    4.7158   -4.4459    0.0000 C   0  0  0  0  0  0  0  0  0 26  0  0
    4.1756   -6.9872    0.0000 O   0  0  0  0  0  0  0  0  0  4  0  0
   -5.2043   -8.6985    0.0000 C   0  0  0  0  0  0  0  0  0 15  0  0
   -4.6641   -6.1572    0.0000 C   0  0  0  0  0  0  0  0  0 16  0  0
    6.1830   -4.7577    0.0000 N   0  0  0  0  0  0  0  0  0  9  0  0
    4.2522   -3.0193    0.0000 O   0  0  0  0  0  0  0  0  0  3  0  0
   -6.2080   -9.8132    0.0000 H   0  0  0  0  0  0  0  0  0  0  0  0
   -6.3190   -7.6948    0.0000 H   0  0  0  0  0  0  0  0  0  0  0  0
   -4.0896   -9.7022    0.0000 H   0  0  0  0  0  0  0  0  0  0  0  0
   -5.1276   -4.7306    0.0000 H   0  0  0  0  0  0  0  0  0  0  0  0
   -6.0907   -6.6207    0.0000 H   0  0  0  0  0  0  0  0  0  0  0  0
   -3.3921   -5.3623    0.0000 H   0  0  0  0  0  0  0  0  0  0  0  0
    7.1867   -3.6430    0.0000 C   0  0  0  0  0  0  0  0  0 31  0  0
    6.6465   -6.1843    0.0000 H   0  0  0  0  0  0  0  0  0  0  0  0
    8.6539   -3.9549    0.0000 C   0  0  0  0  0  0  0  0  0 19  0  0
    6.7232   -2.2164    0.0000 N   0  0  0  0  0  0  0  0  0  7  0  0
    9.6576   -2.8402    0.0000 C   0  0  0  0  0  0  0  0  0 17  0  0
    9.1174   -5.3815    0.0000 H   0  0  0  0  0  0  0  0  0  0  0  0
    7.7268   -1.1017    0.0000 C   0  0  0  0  0  0  0  0  0 18  0  0
    9.1941   -1.4136    0.0000 C   0  0  0  0  0  0  0  0  0 30  0  0
   11.1248   -3.1520    0.0000 H   0  0  0  0  0  0  0  0  0  0  0  0
    7.2633    0.3249    0.0000 H   0  0  0  0  0  0  0  0  0  0  0  0
   10.1978   -0.2989    0.0000 Cl  0  0  0  0  0  0  0  0  0  1  0  0
    1.9555    5.5314    0.0000 H   0  0  0  0  0  0  0  0  0  0  0  0
   -0.1500    5.7900    0.0000 H   0  0  0  0  0  0  0  0  0  0  0  0
    1.8342    3.5473    0.0000 H   0  0  0  0  0  0  0  0  0  0  0  0
   -2.0439    4.7063    0.0000 H   0  0  0  0  0  0  0  0  0  0  0  0
   -3.3342    3.2733    0.0000 H   0  0  0  0  0  0  0  0  0  0  0  0
  1  2  1  0
  2  3  1  0
  2  4  1  0
  2  5  1  0
  1  6  1  0
  1  7  1  0
  1  8  1  0
  9  6  1  0
  6 10  2  0
 11  9  1  0
 10 12  1  0
 10 13  1  0
 14 11  1  0
 12 11  2  0
 13  4  1  0
 13 15  1  0
 13 16  1  0
 17 14  1  0
 14 18  2  0
 19 17  1  0
 17 20  1  0
 21 19  1  0
 19 22  1  0
 19 23  1  6
 24 21  1  0
 21 25  1  0
 21 26  1  0
 27 22  1  0
 22 28  1  0
 22 29  1  6
 30 24  1  0
 24 31  1  0
 24 32  1  1
 33 27  1  0
 27 34  1  0
 28 30  1  0
 28 35  1  0
 28 36  1  0
 30 37  1  0
 30 38  1  0
 31 39  2  0
 31 40  1  0
 41 33  1  0
 33 42  2  0
 40 43  1  0
 40 44  1  0
 45 41  1  0
 41 46  2  0
 43 47  1  0
 43 48  1  0
 43 49  1  0
 44 50  1  0
 44 51  1  0
 44 52  1  0
 53 45  1  0
 45 54  1  0
 55 53  2  0
 53 56  1  0
 57 55  1  0
 55 58  1  0
 56 59  2  0
 60 57  2  0
 57 61  1  0
 59 60  1  0
 59 62  1  0
 63 60  1  0
  3 64  1  0
  3 65  1  0
  3 66  1  0
  4 67  1  0
  4 68  1  0
M  CHG  2   2   1   5  -1
M  END
>  <SMILES>  (5) 
CN(C)C(=O)C1CCC(NC(=O)C(=O)Nc2ccc(Cl)cn2)C(NC(=O)c2nc3c(s2)C[N+](C)([O-])CC3)C1

>  <Molecular Weight>  (5) 
564.1

>  <Substrate_ID>  (5) 
MOL0066

>  <Substrate>  (5) 


>  <Substrate_SMILES>  (5) 
CN1CCc2nc(C(=O)NC3CC(C(=O)N(C)C)CCC3NC(=O)C(=O)Nc3ccc(Cl)cn3)sc2C1

>  <Reaction>  (5) 
N-oxidation_(tertiary_NCH3),N-oxidation

>  <Score>  (5) 
0.0808

>  <Reaction_Score>  (5) 
0.0083

>  <Bond_Score>  (5) 
0.786

>  <Rank>  (5) 
5

>  <Subtype>  (5) 
2C8, 2C9, 3A4

>  <Subtype_Scores>  (5) 
[2C8] SOM_score: 0.4132, Reaction_score: 0.0083, Score: 0.0586
[2C9] SOM_score: 0.2663, Reaction_score: 0.0083, Score: 0.0470
[3A4] SOM_score: 0.7860, Reaction_score: 0.0083, Score: 0.0808


$$$$

     RDKit          2D

 68 71  0  0  0  0  0  0  0  0999 V2000
    3.4681    9.2138    0.0000 N   0  0  0  0  0  4  0  0  0 13  0  0
    4.9406    8.9277    0.0000 O   0  0  0  0  0  1  0  0  0 38  0  0
    3.0046    7.7872    0.0000 C   0  0  0  0  0  0  0  0  0 29  0  0
    3.9316   10.6404    0.0000 C   0  0  0  0  0  0  0  0  0 15  0  0
    2.0415    9.6774    0.0000 C   0  0  0  0  0  0  0  0  0 16  0  0
    4.3952   12.0670    0.0000 H   0  0  0  0  0  0  0  0  0  0  0  0
    5.3582   10.1769    0.0000 H   0  0  0  0  0  0  0  0  0  0  0  0
    3.1289   11.0148    0.0000 H   0  0  0  0  0  0  0  0  0  0  0  0
    0.6150   10.1409    0.0000 H   0  0  0  0  0  0  0  0  0  0  0  0
    2.2105   10.5468    0.0000 H   0  0  0  0  0  0  0  0  0  0  0  0
    1.4710    8.4539    0.0000 H   0  0  0  0  0  0  0  0  0  0  0  0
    4.0083    6.6725    0.0000 C   0  0  0  0  0  0  0  0  0 35  0  0
    2.2249    7.6215    0.0000 O   0  0  0  0  0  0  0  0  0  6  0  0
    5.3327    5.9683    0.0000 C   0  0  0  0  0  0  0  0  0 21  0  0
    2.7362    5.8776    0.0000 C   0  0  0  0  0  0  0  0  0 23  0  0
    4.8675    7.5316    0.0000 H   0  0  0  0  0  0  0  0  0  0  0  0
    5.3851    4.4692    0.0000 C   0  0  0  0  0  0  0  0  0 22  0  0
    5.7082    7.1239    0.0000 H   0  0  0  0  0  0  0  0  0  0  0  0
    6.8181    5.7596    0.0000 H   0  0  0  0  0  0  0  0  0  0  0  0
    2.7886    4.3786    0.0000 C   0  0  0  0  0  0  0  0  0 37  0  0
    1.2690    5.5658    0.0000 H   0  0  0  0  0  0  0  0  0  0  0  0
    2.3068    6.6523    0.0000 H   0  0  0  0  0  0  0  0  0  0  0  0
    4.1130    3.6744    0.0000 C   0  0  0  0  0  0  0  0  0 36  0  0
    6.8523    4.7811    0.0000 H   0  0  0  0  0  0  0  0  0  0  0  0
    6.1123    3.1573    0.0000 H   0  0  0  0  0  0  0  0  0  0  0  0
    2.3250    2.9520    0.0000 N   0  0  0  0  0  0  0  0  0 11  0  0
    1.3032    4.5873    0.0000 H   0  0  0  0  0  0  0  0  0  0  0  0
    5.1167    2.5596    0.0000 N   0  0  0  0  0  0  0  0  0 10  0  0
    3.3405    2.3886    0.0000 H   0  0  0  0  0  0  0  0  0  0  0  0
    0.8578    2.6401    0.0000 C   0  0  0  0  0  0  0  0  0 28  0  0
    3.1854    1.7232    0.0000 H   0  0  0  0  0  0  0  0  0  0  0  0
    4.6532    1.1331    0.0000 C   0  0  0  0  0  0  0  0  0 27  0  0
    6.6110    2.6903    0.0000 H   0  0  0  0  0  0  0  0  0  0  0  0
   -0.1459    3.7548    0.0000 O   0  0  0  0  0  0  0  0  0  5  0  0
    0.3943    1.2135    0.0000 C   0  0  0  0  0  0  0  0  0 32  0  0
    5.6569    0.0183    0.0000 C   0  0  0  0  0  0  0  0  0 26  0  0
    3.1859    0.8212    0.0000 O   0  0  0  0  0  0  0  0  0  4  0  0
    1.2760    0.0000    0.0000 S   0  0  0  0  0  0  0  0  0  2  0  0
   -1.0323    0.7500    0.0000 N   0  0  0  0  0  0  0  0  0  8  0  0
    5.1933   -1.4082    0.0000 N   0  0  0  0  0  0  0  0  0  9  0  0
    7.1241    0.3302    0.0000 O   0  0  0  0  0  0  0  0  0  3  0  0
    0.3943   -1.2135    0.0000 C   0  0  0  0  0  0  0  0  0 34  0  0
   -1.0323   -0.7500    0.0000 C   0  0  0  0  0  0  0  0  0 33  0  0
    6.1970   -2.5230    0.0000 C   0  0  0  0  0  0  0  0  0 31  0  0
    3.7261   -1.7201    0.0000 H   0  0  0  0  0  0  0  0  0  0  0  0
    0.7062   -2.6807    0.0000 C   0  0  0  0  0  0  0  0  0 25  0  0
   -2.1470   -1.7537    0.0000 C   0  0  0  0  0  0  0  0  0 20  0  0
    5.7335   -3.9496    0.0000 C   0  0  0  0  0  0  0  0  0 19  0  0
    7.6643   -2.2111    0.0000 N   0  0  0  0  0  0  0  0  0  7  0  0
   -0.4086   -3.6844    0.0000 N   0  0  0  0  0  0  0  0  0 12  0  0
    1.6502   -3.8464    0.0000 H   0  0  0  0  0  0  0  0  0  0  0  0
    2.0969   -2.1188    0.0000 H   0  0  0  0  0  0  0  0  0  0  0  0
   -1.8351   -3.2209    0.0000 C   0  0  0  0  0  0  0  0  0 24  0  0
   -2.9419   -0.4816    0.0000 H   0  0  0  0  0  0  0  0  0  0  0  0
   -3.5378   -2.3156    0.0000 H   0  0  0  0  0  0  0  0  0  0  0  0
    6.7372   -5.0643    0.0000 C   0  0  0  0  0  0  0  0  0 17  0  0
    4.2663   -4.2614    0.0000 H   0  0  0  0  0  0  0  0  0  0  0  0
    8.6679   -3.3258    0.0000 C   0  0  0  0  0  0  0  0  0 18  0  0
   -0.0967   -5.1517    0.0000 C   0  0  0  0  0  0  0  0  0 14  0  0
   -3.3342   -3.2733    0.0000 H   0  0  0  0  0  0  0  0  0  0  0  0
   -2.2234   -4.6698    0.0000 H   0  0  0  0  0  0  0  0  0  0  0  0
    8.2044   -4.7524    0.0000 C   0  0  0  0  0  0  0  0  0 30  0  0
    6.2737   -6.4909    0.0000 H   0  0  0  0  0  0  0  0  0  0  0  0
   10.1352   -3.0139    0.0000 H   0  0  0  0  0  0  0  0  0  0  0  0
    0.2152   -6.6189    0.0000 H   0  0  0  0  0  0  0  0  0  0  0  0
   -1.5149   -5.6401    0.0000 H   0  0  0  0  0  0  0  0  0  0  0  0
    1.3976   -5.0210    0.0000 H   0  0  0  0  0  0  0  0  0  0  0  0
    9.2081   -5.8671    0.0000 Cl  0  0  0  0  0  0  0  0  0  1  0  0
  1  2  1  0
  1  3  1  0
  1  4  1  0
  1  5  1  0
  4  6  1  0
  4  7  1  0
  4  8  1  0
  5  9  1  0
  5 10  1  0
  5 11  1  0
 12  3  1  0
  3 13  2  0
 14 12  1  0
 12 15  1  0
 12 16  1  6
 17 14  1  0
 14 18  1  0
 14 19  1  0
 15 20  1  0
 15 21  1  0
 15 22  1  0
 23 17  1  0
 17 24  1  0
 17 25  1  0
 20 26  1  0
 20 23  1  0
 20 27  1  1
 28 23  1  0
 23 29  1  1
 26 30  1  0
 26 31  1  0
 32 28  1  0
 28 33  1  0
 30 34  2  0
 30 35  1  0
 36 32  1  0
 32 37  2  0
 35 38  1  0
 39 35  2  0
 40 36  1  0
 36 41  2  0
 38 42  1  0
 43 39  1  0
 44 40  1  0
 40 45  1  0
 42 43  2  0
 46 42  1  0
 43 47  1  0
 48 44  2  0
 44 49  1  0
 50 46  1  0
 46 51  1  0
 46 52  1  0
 47 53  1  0
 47 54  1  0
 47 55  1  0
 56 48  1  0
 48 57  1  0
 49 58  2  0
 53 50  1  0
 50 59  1  0
 53 60  1  0
 53 61  1  0
 62 56  2  0
 56 63  1  0
 58 62  1  0
 58 64  1  0
 59 65  1  0
 59 66  1  0
 59 67  1  0
 68 62  1  0
M  CHG  2   1   1   2  -1
M  END
>  <SMILES>  (6) 
CN1CCc2nc(C(=O)NC3CC(C(=O)[N+](C)(C)[O-])CCC3NC(=O)C(=O)Nc3ccc(Cl)cn3)sc2C1

>  <Molecular Weight>  (6) 
564.1

>  <Substrate_ID>  (6) 
MOL0066

>  <Substrate>  (6) 


>  <Substrate_SMILES>  (6) 
CN1CCc2nc(C(=O)NC3CC(C(=O)N(C)C)CCC3NC(=O)C(=O)Nc3ccc(Cl)cn3)sc2C1

>  <Reaction>  (6) 
N-oxidation

>  <Score>  (6) 
0.0573

>  <Reaction_Score>  (6) 
0.005

>  <Bond_Score>  (6) 
0.657

>  <Rank>  (6) 
6

>  <Subtype>  (6) 
2C8, 2C9, 3A4

>  <Subtype_Scores>  (6) 
[2C8] SOM_score: 0.4176, Reaction_score: 0.0050, Score: 0.0456
[2C9] SOM_score: 0.2622, Reaction_score: 0.0050, Score: 0.0362
[3A4] SOM_score: 0.6570, Reaction_score: 0.0050, Score: 0.0573


$$$$
