
     RDKit          2D

 61 65  0  0  0  0  0  0  0  0999 V2000
    3.3037   -4.2221    0.0000 C   0  0  0  0  0  0  0  0  0 27  0  0
    4.6740   -4.8322    0.0000 C   0  0  0  0  0  0  0  0  0  9  0  0
    6.0443   -5.4423    0.0000 O   0  0  0  0  0  0  0  0  0 31  0  0
    2.9918   -2.7549    0.0000 N   0  0  0  0  0  0  0  0  0  3  0  0
    2.0046   -4.9721    0.0000 C   0  0  0  0  0  0  0  0  0 15  0  0
    1.5000   -2.5981    0.0000 N   0  0  0  0  0  0  0  0  0  8  0  0
    0.8899   -3.9684    0.0000 C   0  0  0  0  0  0  0  0  0 28  0  0
    1.8478   -6.4639    0.0000 H   0  0  0  0  0  0  0  0  0  0  0  0
    0.7500   -1.2990    0.0000 C   0  0  0  0  0  0  0  0  0 26  0  0
   -0.5773   -4.2803    0.0000 N   0  0  0  0  0  0  0  0  0  6  0  0
    1.5000   -0.0000    0.0000 C   0  0  0  0  0  0  0  0  0 13  0  0
   -0.7500   -1.2990    0.0000 C   0  0  0  0  0  0  0  0  0 14  0  0
   -1.5810   -3.1655    0.0000 C   0  0  0  0  0  0  0  0  0 21  0  0
   -1.0409   -5.7068    0.0000 C   0  0  0  0  0  0  0  0  0 22  0  0
    0.7500    1.2990    0.0000 C   0  0  0  0  0  0  0  0  0 11  0  0
    3.0000   -0.0000    0.0000 H   0  0  0  0  0  0  0  0  0  0  0  0
   -1.5000   -0.0000    0.0000 C   0  0  0  0  0  0  0  0  0 12  0  0
   -1.3038   -1.8724    0.0000 H   0  0  0  0  0  0  0  0  0  0  0  0
   -3.0482   -3.4774    0.0000 C   0  0  0  0  0  0  0  0  0 23  0  0
   -1.8796   -2.4264    0.0000 H   0  0  0  0  0  0  0  0  0  0  0  0
   -0.3090   -2.3707    0.0000 H   0  0  0  0  0  0  0  0  0  0  0  0
   -2.5081   -6.0187    0.0000 C   0  0  0  0  0  0  0  0  0 24  0  0
    0.4446   -5.9156    0.0000 H   0  0  0  0  0  0  0  0  0  0  0  0
   -0.9885   -7.2059    0.0000 H   0  0  0  0  0  0  0  0  0  0  0  0
   -0.7500    1.2990    0.0000 C   0  0  0  0  0  0  0  0  0 10  0  0
    1.5000    2.5981    0.0000 H   0  0  0  0  0  0  0  0  0  0  0  0
   -3.0000    0.0000    0.0000 H   0  0  0  0  0  0  0  0  0  0  0  0
   -3.5118   -4.9040    0.0000 N   0  0  0  0  0  0  0  0  0  7  0  0
   -4.4971   -3.0891    0.0000 H   0  0  0  0  0  0  0  0  0  0  0  0
   -3.1006   -1.9783    0.0000 H   0  0  0  0  0  0  0  0  0  0  0  0
   -1.9462   -7.4095    0.0000 H   0  0  0  0  0  0  0  0  0  0  0  0
   -3.5500   -7.0978    0.0000 H   0  0  0  0  0  0  0  0  0  0  0  0
   -1.5000    2.5981    0.0000 H   0  0  0  0  0  0  0  0  0  0  0  0
   -4.9790   -5.2159    0.0000 C   0  0  0  0  0  0  0  0  0 29  0  0
   -6.4790   -5.2159    0.0000 C   0  0  0  0  0  0  0  0  0 17  0  0
   -4.5155   -6.6424    0.0000 C   0  0  0  0  0  0  0  0  0 18  0  0
   -5.3165   -3.7543    0.0000 H   0  0  0  0  0  0  0  0  0  0  0  0
   -6.9425   -6.6424    0.0000 N   0  0  0  0  0  0  0  0  0  4  0  0
   -6.3222   -3.7241    0.0000 H   0  0  0  0  0  0  0  0  0  0  0  0
   -7.9462   -4.9040    0.0000 H   0  0  0  0  0  0  0  0  0  0  0  0
   -5.7290   -7.5241    0.0000 C   0  0  0  0  0  0  0  0  0 30  0  0
   -3.7655   -7.9415    0.0000 H   0  0  0  0  0  0  0  0  0  0  0  0
   -3.0382   -6.3821    0.0000 H   0  0  0  0  0  0  0  0  0  0  0  0
   -8.3691   -7.1060    0.0000 H   0  0  0  0  0  0  0  0  0  0  0  0
   -6.7327   -8.6388    0.0000 C   0  0  0  0  0  0  0  0  0 25  0  0
   -4.5969   -8.5082    0.0000 H   0  0  0  0  0  0  0  0  0  0  0  0
   -6.2692  -10.0654    0.0000 N   0  0  0  0  0  0  0  0  0  5  0  0
   -8.1999   -8.3270    0.0000 O   0  0  0  0  0  0  0  0  0  2  0  0
   -4.8426  -10.5290    0.0000 C   0  0  0  0  0  0  0  0  0 19  0  0
   -7.1508  -11.2790    0.0000 C   0  0  0  0  0  0  0  0  0 20  0  0
   -4.8426  -12.0290    0.0000 C   0  0  0  0  0  0  0  0  0 16  0  0
   -4.3542   -9.1107    0.0000 H   0  0  0  0  0  0  0  0  0  0  0  0
   -3.3508  -10.6857    0.0000 H   0  0  0  0  0  0  0  0  0  0  0  0
   -6.2692  -12.4925    0.0000 S   0  0  0  0  0  0  0  0  0  1  0  0
   -8.2656  -12.2827    0.0000 H   0  0  0  0  0  0  0  0  0  0  0  0
   -8.2656  -10.2753    0.0000 H   0  0  0  0  0  0  0  0  0  0  0  0
   -3.3508  -11.8722    0.0000 H   0  0  0  0  0  0  0  0  0  0  0  0
   -4.5307  -13.4962    0.0000 H   0  0  0  0  0  0  0  0  0  0  0  0
    4.0639   -6.2025    0.0000 H   0  0  0  0  0  0  0  0  0  0  0  0
    5.2841   -3.4619    0.0000 H   0  0  0  0  0  0  0  0  0  0  0  0
    7.2578   -4.5606    0.0000 H   0  0  0  0  0  0  0  0  0  0  0  0
  1  2  1  0
  2  3  1  0
  4  1  2  0
  1  5  1  0
  6  4  1  0
  5  7  2  0
  5  8  1  0
  7  6  1  0
  6  9  1  0
 10  7  1  0
  9 11  2  0
 12  9  1  0
 13 10  1  0
 10 14  1  0
 11 15  1  0
 11 16  1  0
 17 12  2  0
 12 18  1  0
 19 13  1  0
 13 20  1  0
 13 21  1  0
 14 22  1  0
 14 23  1  0
 14 24  1  0
 15 25  2  0
 15 26  1  0
 25 17  1  0
 17 27  1  0
 28 19  1  0
 19 29  1  0
 19 30  1  0
 22 28  1  0
 22 31  1  0
 22 32  1  0
 25 33  1  0
 34 28  1  0
 35 34  1  0
 34 36  1  0
 34 37  1  6
 38 35  1  0
 35 39  1  0
 35 40  1  0
 36 41  1  0
 36 42  1  0
 36 43  1  0
 41 38  1  0
 38 44  1  0
 45 41  1  0
 41 46  1  6
 47 45  1  0
 45 48  2  0
 49 47  1  0
 47 50  1  0
 51 49  1  0
 49 52  1  0
 49 53  1  0
 50 54  1  0
 50 55  1  0
 50 56  1  0
 54 51  1  0
 51 57  1  0
 51 58  1  0
  2 59  1  0
  2 60  1  0
  3 61  1  0
M  END
>  <SMILES>  (1) 
O=C(C1CC(N2CCN(c3cc(CO)nn3-c3ccccc3)CC2)CN1)N1CCSC1

>  <Molecular Weight>  (1) 
442.6

>  <Substrate_ID>  (1) 
MOL0059

>  <Substrate>  (1) 


>  <Substrate_SMILES>  (1) 
Cc1cc(N2CCN(C3CNC(C(=O)N4CCSC4)C3)CC2)n(-c2ccccc2)n1

>  <Reaction>  (1) 
benzylic_hydroxylation_(c-CH3),aliphatic hydroxylation

>  <Score>  (1) 
0.3875

>  <Reaction_Score>  (1) 
0.3838

>  <Bond_Score>  (1) 
0.3913

>  <Rank>  (1) 
1

>  <Subtype>  (1) 
2D6, 3A4

>  <Subtype_Scores>  (1) 
[2D6] SOM_score: 0.1575, Reaction_score: 0.3838, Score: 0.2459
[3A4] SOM_score: 0.3913, Reaction_score: 0.3838, Score: 0.3875


$$$$

     RDKit          2D

 61 65  0  0  0  0  0  0  0  0999 V2000
    4.2680   -9.3309    0.0000 C   0  0  0  0  0  0  0  0  0 16  0  0
    2.7762   -9.4877    0.0000 S   0  0  0  0  0  4  0  0  0  1  0  0
    2.0262  -10.7868    0.0000 O   0  0  0  0  0  0  0  0  0 31  0  0
    2.1661   -8.1174    0.0000 C   0  0  0  0  0  0  0  0  0 20  0  0
    4.5798   -7.8637    0.0000 C   0  0  0  0  0  0  0  0  0 19  0  0
    4.2680  -10.8309    0.0000 H   0  0  0  0  0  0  0  0  0  0  0  0
    5.7598   -9.4877    0.0000 H   0  0  0  0  0  0  0  0  0  0  0  0
    3.2808   -7.1137    0.0000 N   0  0  0  0  0  0  0  0  0  5  0  0
    6.0064   -8.3272    0.0000 H   0  0  0  0  0  0  0  0  0  0  0  0
    5.1899   -6.4934    0.0000 H   0  0  0  0  0  0  0  0  0  0  0  0
    3.1240   -5.6219    0.0000 C   0  0  0  0  0  0  0  0  0 25  0  0
    4.1867   -5.0329    0.0000 O   0  0  0  0  0  0  0  0  0  2  0  0
    1.7537   -5.0118    0.0000 C   0  0  0  0  0  0  0  0  0 30  0  0
    0.2865   -4.7000    0.0000 N   0  0  0  0  0  0  0  0  0  4  0  0
    2.5037   -3.7128    0.0000 C   0  0  0  0  0  0  0  0  0 18  0  0
    1.1197   -6.3713    0.0000 H   0  0  0  0  0  0  0  0  0  0  0  0
    0.1297   -3.2082    0.0000 C   0  0  0  0  0  0  0  0  0 17  0  0
   -0.8282   -5.7037    0.0000 H   0  0  0  0  0  0  0  0  0  0  0  0
    1.5000   -2.5981    0.0000 C   0  0  0  0  0  0  0  0  0 29  0  0
    3.5074   -2.5981    0.0000 H   0  0  0  0  0  0  0  0  0  0  0  0
    3.5664   -4.3018    0.0000 H   0  0  0  0  0  0  0  0  0  0  0  0
   -1.1908   -3.4889    0.0000 H   0  0  0  0  0  0  0  0  0  0  0  0
   -0.2928   -2.5322    0.0000 H   0  0  0  0  0  0  0  0  0  0  0  0
    0.7500   -1.2990    0.0000 N   0  0  0  0  0  0  0  0  0  7  0  0
    2.8119   -1.8709    0.0000 H   0  0  0  0  0  0  0  0  0  0  0  0
    1.5000    0.0000    0.0000 C   0  0  0  0  0  0  0  0  0 23  0  0
   -0.7500   -1.2990    0.0000 C   0  0  0  0  0  0  0  0  0 24  0  0
    0.7500    1.2990    0.0000 C   0  0  0  0  0  0  0  0  0 21  0  0
    2.6491    0.9642    0.0000 H   0  0  0  0  0  0  0  0  0  0  0  0
    2.7580   -0.8169    0.0000 H   0  0  0  0  0  0  0  0  0  0  0  0
   -1.5000    0.0000    0.0000 C   0  0  0  0  0  0  0  0  0 22  0  0
   -0.8118   -2.1826    0.0000 H   0  0  0  0  0  0  0  0  0  0  0  0
   -2.1595   -1.8121    0.0000 H   0  0  0  0  0  0  0  0  0  0  0  0
   -0.7500    1.2990    0.0000 N   0  0  0  0  0  0  0  0  0  6  0  0
    0.4895    2.7762    0.0000 H   0  0  0  0  0  0  0  0  0  0  0  0
    2.1595    1.8121    0.0000 H   0  0  0  0  0  0  0  0  0  0  0  0
   -2.6491   -0.9642    0.0000 H   0  0  0  0  0  0  0  0  0  0  0  0
   -2.6491    0.9642    0.0000 H   0  0  0  0  0  0  0  0  0  0  0  0
   -1.5000    2.5981    0.0000 C   0  0  0  0  0  0  0  0  0 28  0  0
   -0.8899    3.9684    0.0000 N   0  0  0  0  0  0  0  0  0  8  0  0
   -2.9918    2.7549    0.0000 C   0  0  0  0  0  0  0  0  0 15  0  0
    0.5773    4.2803    0.0000 C   0  0  0  0  0  0  0  0  0 26  0  0
   -2.0046    4.9721    0.0000 N   0  0  0  0  0  0  0  0  0  3  0  0
   -3.3037    4.2221    0.0000 C   0  0  0  0  0  0  0  0  0 27  0  0
   -3.9955    1.6402    0.0000 H   0  0  0  0  0  0  0  0  0  0  0  0
    1.5810    3.1655    0.0000 C   0  0  0  0  0  0  0  0  0 13  0  0
    1.0409    5.7068    0.0000 C   0  0  0  0  0  0  0  0  0 14  0  0
   -4.6740    4.8322    0.0000 C   0  0  0  0  0  0  0  0  0  9  0  0
    3.0482    3.4774    0.0000 C   0  0  0  0  0  0  0  0  0 11  0  0
    1.4765    1.6692    0.0000 H   0  0  0  0  0  0  0  0  0  0  0  0
    2.5081    6.0187    0.0000 C   0  0  0  0  0  0  0  0  0 12  0  0
    0.0372    6.8216    0.0000 H   0  0  0  0  0  0  0  0  0  0  0  0
   -6.0443    5.4423    0.0000 H   0  0  0  0  0  0  0  0  0  0  0  0
   -4.0639    6.2025    0.0000 H   0  0  0  0  0  0  0  0  0  0  0  0
   -5.2841    3.4619    0.0000 H   0  0  0  0  0  0  0  0  0  0  0  0
    3.5118    4.9040    0.0000 C   0  0  0  0  0  0  0  0  0 10  0  0
    4.0519    2.3627    0.0000 H   0  0  0  0  0  0  0  0  0  0  0  0
    2.9716    7.4453    0.0000 H   0  0  0  0  0  0  0  0  0  0  0  0
    4.9790    5.2159    0.0000 H   0  0  0  0  0  0  0  0  0  0  0  0
    1.1431   -7.0204    0.0000 H   0  0  0  0  0  0  0  0  0  0  0  0
    0.8671   -8.8674    0.0000 H   0  0  0  0  0  0  0  0  0  0  0  0
  1  2  1  0
  2  3  2  0
  2  4  1  0
  1  5  1  0
  1  6  1  0
  1  7  1  0
  5  8  1  0
  5  9  1  0
  5 10  1  0
  8 11  1  0
  8  4  1  0
 11 12  2  0
 11 13  1  0
 13 14  1  0
 15 13  1  0
 13 16  1  6
 14 17  1  0
 14 18  1  0
 19 15  1  0
 15 20  1  0
 15 21  1  0
 17 19  1  0
 17 22  1  0
 17 23  1  0
 19 24  1  0
 19 25  1  6
 24 26  1  0
 27 24  1  0
 26 28  1  0
 26 29  1  0
 26 30  1  0
 31 27  1  0
 27 32  1  0
 27 33  1  0
 28 34  1  0
 28 35  1  0
 28 36  1  0
 34 31  1  0
 31 37  1  0
 31 38  1  0
 34 39  1  0
 39 40  1  0
 41 39  2  0
 40 42  1  0
 40 43  1  0
 44 41  1  0
 41 45  1  0
 42 46  2  0
 47 42  1  0
 43 44  2  0
 44 48  1  0
 46 49  1  0
 46 50  1  0
 51 47  2  0
 47 52  1  0
 48 53  1  0
 48 54  1  0
 48 55  1  0
 49 56  2  0
 49 57  1  0
 56 51  1  0
 51 58  1  0
 56 59  1  0
  4 60  1  0
  4 61  1  0
M  END
>  <SMILES>  (2) 
Cc1cc(N2CCN(C3CNC(C(=O)N4CCS(=O)C4)C3)CC2)n(-c2ccccc2)n1

>  <Molecular Weight>  (2) 
442.6

>  <Substrate_ID>  (2) 
MOL0059

>  <Substrate>  (2) 


>  <Substrate_SMILES>  (2) 
Cc1cc(N2CCN(C3CNC(C(=O)N4CCSC4)C3)CC2)n(-c2ccccc2)n1

>  <Reaction>  (2) 
sulfide_oxidation_(C-S-C),S-oxidation

>  <Score>  (2) 
0.3369

>  <Reaction_Score>  (2) 
0.2022

>  <Bond_Score>  (2) 
0.5611

>  <Rank>  (2) 
2

>  <Subtype>  (2) 
2D6, 3A4

>  <Subtype_Scores>  (2) 
[2D6] SOM_score: 0.3988, Reaction_score: 0.2022, Score: 0.2840
[3A4] SOM_score: 0.5611, Reaction_score: 0.2022, Score: 0.3369


$$$$

     RDKit          2D

 36 38  0  0  0  0  0  0  0  0999 V2000
    1.5000    0.0000    0.0000 N   0  0  0  0  0  0  0  0  0  7  0  0
    3.0000    0.0000    0.0000 H   0  0  0  0  0  0  0  0  0  0  0  0
    0.7500   -1.2990    0.0000 C   0  0  0  0  0  0  0  0  0 23  0  0
    0.7500    1.2990    0.0000 C   0  0  0  0  0  0  0  0  0 24  0  0
   -0.7500   -1.2990    0.0000 C   0  0  0  0  0  0  0  0  0 21  0  0
    2.1595   -1.8121    0.0000 H   0  0  0  0  0  0  0  0  0  0  0  0
    0.4895   -2.7762    0.0000 H   0  0  0  0  0  0  0  0  0  0  0  0
   -0.7500    1.2990    0.0000 C   0  0  0  0  0  0  0  0  0 22  0  0
    0.4895    2.7762    0.0000 H   0  0  0  0  0  0  0  0  0  0  0  0
    2.1595    1.8121    0.0000 H   0  0  0  0  0  0  0  0  0  0  0  0
   -1.5000    0.0000    0.0000 N   0  0  0  0  0  0  0  0  0  6  0  0
   -0.4895   -2.7762    0.0000 H   0  0  0  0  0  0  0  0  0  0  0  0
   -2.1595   -1.8121    0.0000 H   0  0  0  0  0  0  0  0  0  0  0  0
   -2.1595    1.8121    0.0000 H   0  0  0  0  0  0  0  0  0  0  0  0
   -0.6116    2.0841    0.0000 H   0  0  0  0  0  0  0  0  0  0  0  0
   -3.0000    0.0000    0.0000 C   0  0  0  0  0  0  0  0  0 28  0  0
   -3.8817    1.2135    0.0000 N   0  0  0  0  0  0  0  0  0  8  0  0
   -3.8817   -1.2135    0.0000 C   0  0  0  0  0  0  0  0  0 15  0  0
   -3.4182    2.6401    0.0000 C   0  0  0  0  0  0  0  0  0 26  0  0
   -5.3083    0.7500    0.0000 N   0  0  0  0  0  0  0  0  0  3  0  0
   -5.3083   -0.7500    0.0000 C   0  0  0  0  0  0  0  0  0 27  0  0
   -3.4182   -2.6401    0.0000 H   0  0  0  0  0  0  0  0  0  0  0  0
   -4.4218    3.7548    0.0000 C   0  0  0  0  0  0  0  0  0 13  0  0
   -1.9509    2.9520    0.0000 C   0  0  0  0  0  0  0  0  0 14  0  0
   -6.5218   -1.6317    0.0000 C   0  0  0  0  0  0  0  0  0  9  0  0
   -3.9583    5.1814    0.0000 C   0  0  0  0  0  0  0  0  0 11  0  0
   -5.8891    3.4430    0.0000 H   0  0  0  0  0  0  0  0  0  0  0  0
   -1.4874    4.3786    0.0000 C   0  0  0  0  0  0  0  0  0 12  0  0
   -1.2900    2.5062    0.0000 H   0  0  0  0  0  0  0  0  0  0  0  0
   -7.7353   -2.5134    0.0000 H   0  0  0  0  0  0  0  0  0  0  0  0
   -7.4035   -0.4182    0.0000 H   0  0  0  0  0  0  0  0  0  0  0  0
   -5.6401   -2.8452    0.0000 H   0  0  0  0  0  0  0  0  0  0  0  0
   -2.4911    5.4933    0.0000 C   0  0  0  0  0  0  0  0  0 10  0  0
   -4.9620    6.2961    0.0000 H   0  0  0  0  0  0  0  0  0  0  0  0
   -0.0202    4.6904    0.0000 H   0  0  0  0  0  0  0  0  0  0  0  0
   -2.0276    6.9199    0.0000 H   0  0  0  0  0  0  0  0  0  0  0  0
  1  2  1  0
  1  3  1  0
  4  1  1  0
  3  5  1  0
  3  6  1  0
  3  7  1  0
  8  4  1  0
  4  9  1  0
  4 10  1  0
  5 11  1  0
  5 12  1  0
  5 13  1  0
 11  8  1  0
  8 14  1  0
  8 15  1  0
 11 16  1  0
 16 17  1  0
 18 16  2  0
 17 19  1  0
 17 20  1  0
 21 18  1  0
 18 22  1  0
 19 23  2  0
 24 19  1  0
 20 21  2  0
 21 25  1  0
 23 26  1  0
 23 27  1  0
 28 24  2  0
 24 29  1  0
 25 30  1  0
 25 31  1  0
 25 32  1  0
 26 33  2  0
 26 34  1  0
 33 28  1  0
 28 35  1  0
 33 36  1  0
M  END
>  <SMILES>  (3) 
Cc1cc(N2CCNCC2)n(-c2ccccc2)n1

>  <Molecular Weight>  (3) 
242.3

>  <Substrate_ID>  (3) 
MOL0059

>  <Substrate>  (3) 


>  <Substrate_SMILES>  (3) 
Cc1cc(N2CCN(C3CNC(C(=O)N4CCSC4)C3)CC2)n(-c2ccccc2)n1

>  <Reaction>  (3) 
N-dealkylation_(hetero_ring)

>  <Score>  (3) 
0.2487

>  <Reaction_Score>  (3) 
0.2235

>  <Bond_Score>  (3) 
0.2768

>  <Rank>  (3) 
3

>  <Subtype>  (3) 
3A4

>  <Subtype_Scores>  (3) 
[3A4] SOM_score: 0.2768, Reaction_score: 0.2235, Score: 0.2487


$$$$

     RDKit          2D

 25 26  0  0  0  0  0  0  0  0999 V2000
    1.2760    0.0000    0.0000 C   0  0  0  0  0  0  0  0  0 29  0  0
    2.7760    0.0000    0.0000 O   0  0  0  0  0  0  0  0  0 31  0  0
    0.3943    1.2135    0.0000 C   0  0  0  0  0  0  0  0  0 17  0  0
    0.3943   -1.2135    0.0000 C   0  0  0  0  0  0  0  0  0 18  0  0
   -1.0323    0.7500    0.0000 N   0  0  0  0  0  0  0  0  0  4  0  0
   -0.2158    2.5838    0.0000 H   0  0  0  0  0  0  0  0  0  0  0  0
    1.6933    1.9635    0.0000 H   0  0  0  0  0  0  0  0  0  0  0  0
   -1.0323   -0.7500    0.0000 C   0  0  0  0  0  0  0  0  0 30  0  0
    1.6933   -1.9635    0.0000 H   0  0  0  0  0  0  0  0  0  0  0  0
    0.0391   -2.3754    0.0000 H   0  0  0  0  0  0  0  0  0  0  0  0
   -2.2458    1.6317    0.0000 H   0  0  0  0  0  0  0  0  0  0  0  0
   -1.3442   -2.2172    0.0000 C   0  0  0  0  0  0  0  0  0 25  0  0
   -2.2161   -0.4767    0.0000 H   0  0  0  0  0  0  0  0  0  0  0  0
   -2.7707   -2.6807    0.0000 N   0  0  0  0  0  0  0  0  0  5  0  0
   -0.5471   -3.1342    0.0000 O   0  0  0  0  0  0  0  0  0  2  0  0
   -3.2343   -4.1073    0.0000 C   0  0  0  0  0  0  0  0  0 19  0  0
   -3.9843   -1.7991    0.0000 C   0  0  0  0  0  0  0  0  0 20  0  0
   -4.7343   -4.1073    0.0000 C   0  0  0  0  0  0  0  0  0 16  0  0
   -1.7670   -4.4192    0.0000 H   0  0  0  0  0  0  0  0  0  0  0  0
   -3.3911   -5.5991    0.0000 H   0  0  0  0  0  0  0  0  0  0  0  0
   -5.1978   -2.6807    0.0000 S   0  0  0  0  0  0  0  0  0  1  0  0
   -4.9880   -0.6844    0.0000 H   0  0  0  0  0  0  0  0  0  0  0  0
   -3.2874   -0.8038    0.0000 H   0  0  0  0  0  0  0  0  0  0  0  0
   -4.5775   -5.5991    0.0000 H   0  0  0  0  0  0  0  0  0  0  0  0
   -6.2015   -4.4192    0.0000 H   0  0  0  0  0  0  0  0  0  0  0  0
  1  2  2  0
  3  1  1  0
  1  4  1  0
  5  3  1  0
  3  6  1  0
  3  7  1  0
  4  8  1  0
  4  9  1  0
  4 10  1  0
  8  5  1  0
  5 11  1  0
 12  8  1  0
  8 13  1  6
 14 12  1  0
 12 15  2  0
 16 14  1  0
 14 17  1  0
 18 16  1  0
 16 19  1  0
 16 20  1  0
 17 21  1  0
 17 22  1  0
 17 23  1  0
 21 18  1  0
 18 24  1  0
 18 25  1  0
M  END
>  <SMILES>  (4) 
O=C1CNC(C(=O)N2CCSC2)C1

>  <Molecular Weight>  (4) 
200.3

>  <Substrate_ID>  (4) 
MOL0059

>  <Substrate>  (4) 


>  <Substrate_SMILES>  (4) 
Cc1cc(N2CCN(C3CNC(C(=O)N4CCSC4)C3)CC2)n(-c2ccccc2)n1

>  <Reaction>  (4) 
N-dealkylation_(hetero_ring)

>  <Score>  (4) 
0.2487

>  <Reaction_Score>  (4) 
0.2235

>  <Bond_Score>  (4) 
0.2768

>  <Rank>  (4) 
3

>  <Subtype>  (4) 
3A4

>  <Subtype_Scores>  (4) 
[3A4] SOM_score: 0.2768, Reaction_score: 0.2235, Score: 0.2487


$$$$

     RDKit          2D

 61 65  0  0  0  0  0  0  0  0999 V2000
    1.5000   -2.5981    0.0000 N   0  0  0  0  0  0  0  0  0  8  0  0
    0.7500   -1.2990    0.0000 C   0  0  0  0  0  0  0  0  0 26  0  0
    1.5000    0.0000    0.0000 C   0  0  0  0  0  0  0  0  0 14  0  0
    0.7500    1.2990    0.0000 C   0  0  0  0  0  0  0  0  0 12  0  0
   -0.7500    1.2990    0.0000 C   0  0  0  0  0  0  0  0  0 10  0  0
   -1.5000    2.5981    0.0000 O   0  0  0  0  0  0  0  0  0 31  0  0
   -1.5000    0.0000    0.0000 C   0  0  0  0  0  0  0  0  0 11  0  0
   -0.7500   -1.2990    0.0000 C   0  0  0  0  0  0  0  0  0 13  0  0
    0.8899   -3.9684    0.0000 C   0  0  0  0  0  0  0  0  0 28  0  0
    2.9918   -2.7549    0.0000 N   0  0  0  0  0  0  0  0  0  3  0  0
   -0.5773   -4.2803    0.0000 N   0  0  0  0  0  0  0  0  0  6  0  0
    2.0046   -4.9721    0.0000 C   0  0  0  0  0  0  0  0  0 15  0  0
    3.3037   -4.2221    0.0000 C   0  0  0  0  0  0  0  0  0 27  0  0
   -1.5810   -3.1655    0.0000 C   0  0  0  0  0  0  0  0  0 21  0  0
   -1.0409   -5.7068    0.0000 C   0  0  0  0  0  0  0  0  0 22  0  0
    1.8478   -6.4639    0.0000 H   0  0  0  0  0  0  0  0  0  0  0  0
    4.6740   -4.8322    0.0000 C   0  0  0  0  0  0  0  0  0  9  0  0
   -3.0482   -3.4774    0.0000 C   0  0  0  0  0  0  0  0  0 23  0  0
   -2.1429   -1.7748    0.0000 H   0  0  0  0  0  0  0  0  0  0  0  0
   -0.3090   -2.3707    0.0000 H   0  0  0  0  0  0  0  0  0  0  0  0
   -2.5081   -6.0187    0.0000 C   0  0  0  0  0  0  0  0  0 24  0  0
    0.4446   -5.9156    0.0000 H   0  0  0  0  0  0  0  0  0  0  0  0
   -0.9885   -7.2059    0.0000 H   0  0  0  0  0  0  0  0  0  0  0  0
    6.0443   -5.4423    0.0000 H   0  0  0  0  0  0  0  0  0  0  0  0
    5.2841   -3.4619    0.0000 H   0  0  0  0  0  0  0  0  0  0  0  0
    4.0639   -6.2025    0.0000 H   0  0  0  0  0  0  0  0  0  0  0  0
   -3.5118   -4.9040    0.0000 N   0  0  0  0  0  0  0  0  0  7  0  0
   -4.4971   -3.0891    0.0000 H   0  0  0  0  0  0  0  0  0  0  0  0
   -3.1006   -1.9783    0.0000 H   0  0  0  0  0  0  0  0  0  0  0  0
   -1.9462   -7.4095    0.0000 H   0  0  0  0  0  0  0  0  0  0  0  0
   -3.0618   -6.5922    0.0000 H   0  0  0  0  0  0  0  0  0  0  0  0
   -4.9790   -5.2159    0.0000 C   0  0  0  0  0  0  0  0  0 29  0  0
   -6.4790   -5.2159    0.0000 C   0  0  0  0  0  0  0  0  0 17  0  0
   -4.5155   -6.6424    0.0000 C   0  0  0  0  0  0  0  0  0 18  0  0
   -5.3165   -3.7543    0.0000 H   0  0  0  0  0  0  0  0  0  0  0  0
   -6.9425   -6.6424    0.0000 N   0  0  0  0  0  0  0  0  0  4  0  0
   -6.3222   -3.7241    0.0000 H   0  0  0  0  0  0  0  0  0  0  0  0
   -7.9462   -4.9040    0.0000 H   0  0  0  0  0  0  0  0  0  0  0  0
   -5.7290   -7.5241    0.0000 C   0  0  0  0  0  0  0  0  0 30  0  0
   -3.8405   -7.8116    0.0000 H   0  0  0  0  0  0  0  0  0  0  0  0
   -3.7304   -6.5041    0.0000 H   0  0  0  0  0  0  0  0  0  0  0  0
   -8.3691   -7.1060    0.0000 H   0  0  0  0  0  0  0  0  0  0  0  0
   -6.7327   -8.6388    0.0000 C   0  0  0  0  0  0  0  0  0 25  0  0
   -4.5969   -8.5082    0.0000 H   0  0  0  0  0  0  0  0  0  0  0  0
   -6.2692  -10.0654    0.0000 N   0  0  0  0  0  0  0  0  0  5  0  0
   -8.1999   -8.3270    0.0000 O   0  0  0  0  0  0  0  0  0  2  0  0
   -4.8426  -10.5290    0.0000 C   0  0  0  0  0  0  0  0  0 19  0  0
   -7.1508  -11.2790    0.0000 C   0  0  0  0  0  0  0  0  0 20  0  0
   -4.8426  -12.0290    0.0000 C   0  0  0  0  0  0  0  0  0 16  0  0
   -4.3542   -9.1107    0.0000 H   0  0  0  0  0  0  0  0  0  0  0  0
   -3.3508  -10.6857    0.0000 H   0  0  0  0  0  0  0  0  0  0  0  0
   -6.2692  -12.4925    0.0000 S   0  0  0  0  0  0  0  0  0  1  0  0
   -8.2656  -12.2827    0.0000 H   0  0  0  0  0  0  0  0  0  0  0  0
   -8.2656  -10.2753    0.0000 H   0  0  0  0  0  0  0  0  0  0  0  0
   -3.3508  -11.8722    0.0000 H   0  0  0  0  0  0  0  0  0  0  0  0
   -4.5307  -13.4962    0.0000 H   0  0  0  0  0  0  0  0  0  0  0  0
    3.0000    0.0000    0.0000 H   0  0  0  0  0  0  0  0  0  0  0  0
    1.5000    2.5981    0.0000 H   0  0  0  0  0  0  0  0  0  0  0  0
   -3.0000    0.0000    0.0000 H   0  0  0  0  0  0  0  0  0  0  0  0
   -1.7920   -2.3780    0.0000 H   0  0  0  0  0  0  0  0  0  0  0  0
   -3.0000    2.5981    0.0000 H   0  0  0  0  0  0  0  0  0  0  0  0
  1  2  1  0
  2  3  2  0
  3  4  1  0
  4  5  2  0
  5  6  1  0
  5  7  1  0
  7  8  2  0
  8  2  1  0
  9  1  1  0
  1 10  1  0
 11  9  1  0
 12  9  2  0
 10 13  2  0
 14 11  1  0
 11 15  1  0
 13 12  1  0
 12 16  1  0
 13 17  1  0
 18 14  1  0
 14 19  1  0
 14 20  1  0
 15 21  1  0
 15 22  1  0
 15 23  1  0
 17 24  1  0
 17 25  1  0
 17 26  1  0
 27 18  1  0
 18 28  1  0
 18 29  1  0
 21 27  1  0
 21 30  1  0
 21 31  1  0
 32 27  1  0
 33 32  1  0
 32 34  1  0
 32 35  1  6
 36 33  1  0
 33 37  1  0
 33 38  1  0
 34 39  1  0
 34 40  1  0
 34 41  1  0
 39 36  1  0
 36 42  1  0
 43 39  1  0
 39 44  1  6
 45 43  1  0
 43 46  2  0
 47 45  1  0
 45 48  1  0
 49 47  1  0
 47 50  1  0
 47 51  1  0
 48 52  1  0
 48 53  1  0
 48 54  1  0
 52 49  1  0
 49 55  1  0
 49 56  1  0
  3 57  1  0
  4 58  1  0
  7 59  1  0
  8 60  1  0
  6 61  1  0
M  END
>  <SMILES>  (5) 
Cc1cc(N2CCN(C3CNC(C(=O)N4CCSC4)C3)CC2)n(-c2ccc(O)cc2)n1

>  <Molecular Weight>  (5) 
442.6

>  <Substrate_ID>  (5) 
MOL0059

>  <Substrate>  (5) 


>  <Substrate_SMILES>  (5) 
Cc1cc(N2CCN(C3CNC(C(=O)N4CCSC4)C3)CC2)n(-c2ccccc2)n1

>  <Reaction>  (5) 
aromatic_hydroxylation_(para_to_nitrogen),aromatic hydroxylation

>  <Score>  (5) 
0.1873

>  <Reaction_Score>  (5) 
0.1947

>  <Bond_Score>  (5) 
0.1802

>  <Rank>  (5) 
4

>  <Subtype>  (5) 
3A4

>  <Subtype_Scores>  (5) 
[3A4] SOM_score: 0.1802, Reaction_score: 0.1947, Score: 0.1873


$$$$

     RDKit          2D

 61 65  0  0  0  0  0  0  0  0999 V2000
    4.5798   -7.8637    0.0000 C   0  0  0  0  0  0  0  0  0 20  0  0
    5.1899   -6.4934    0.0000 O   0  0  0  0  0  0  0  0  0 31  0  0
    6.6817   -6.3366    0.0000 H   0  0  0  0  0  0  0  0  0  0  0  0
    3.2808   -7.1137    0.0000 N   0  0  0  0  0  0  0  0  0  5  0  0
    4.2680   -9.3309    0.0000 S   0  0  0  0  0  0  0  0  0  1  0  0
    6.0064   -8.3272    0.0000 H   0  0  0  0  0  0  0  0  0  0  0  0
    2.1661   -8.1174    0.0000 C   0  0  0  0  0  0  0  0  0 19  0  0
    3.1240   -5.6219    0.0000 C   0  0  0  0  0  0  0  0  0 25  0  0
    2.7762   -9.4877    0.0000 C   0  0  0  0  0  0  0  0  0 16  0  0
    0.8671   -8.8674    0.0000 H   0  0  0  0  0  0  0  0  0  0  0  0
    1.3374   -7.2288    0.0000 H   0  0  0  0  0  0  0  0  0  0  0  0
    4.1867   -5.0329    0.0000 O   0  0  0  0  0  0  0  0  0  2  0  0
    1.7537   -5.0118    0.0000 C   0  0  0  0  0  0  0  0  0 30  0  0
    3.0881  -10.9550    0.0000 H   0  0  0  0  0  0  0  0  0  0  0  0
    1.3496   -9.9513    0.0000 H   0  0  0  0  0  0  0  0  0  0  0  0
    0.2865   -4.7000    0.0000 N   0  0  0  0  0  0  0  0  0  4  0  0
    2.5037   -3.7128    0.0000 C   0  0  0  0  0  0  0  0  0 18  0  0
    1.2402   -6.1130    0.0000 H   0  0  0  0  0  0  0  0  0  0  0  0
    0.1297   -3.2082    0.0000 C   0  0  0  0  0  0  0  0  0 17  0  0
   -0.8282   -5.7037    0.0000 H   0  0  0  0  0  0  0  0  0  0  0  0
    1.5000   -2.5981    0.0000 C   0  0  0  0  0  0  0  0  0 29  0  0
    3.5074   -2.5981    0.0000 H   0  0  0  0  0  0  0  0  0  0  0  0
    3.5664   -4.3018    0.0000 H   0  0  0  0  0  0  0  0  0  0  0  0
   -1.1908   -3.4889    0.0000 H   0  0  0  0  0  0  0  0  0  0  0  0
   -0.2928   -2.5322    0.0000 H   0  0  0  0  0  0  0  0  0  0  0  0
    0.7500   -1.2990    0.0000 N   0  0  0  0  0  0  0  0  0  7  0  0
    2.8119   -1.8709    0.0000 H   0  0  0  0  0  0  0  0  0  0  0  0
    1.5000    0.0000    0.0000 C   0  0  0  0  0  0  0  0  0 23  0  0
   -0.7500   -1.2990    0.0000 C   0  0  0  0  0  0  0  0  0 24  0  0
    0.7500    1.2990    0.0000 C   0  0  0  0  0  0  0  0  0 21  0  0
    2.6491    0.9642    0.0000 H   0  0  0  0  0  0  0  0  0  0  0  0
    2.7580   -0.8169    0.0000 H   0  0  0  0  0  0  0  0  0  0  0  0
   -1.5000    0.0000    0.0000 C   0  0  0  0  0  0  0  0  0 22  0  0
   -0.8118   -2.1826    0.0000 H   0  0  0  0  0  0  0  0  0  0  0  0
   -2.1595   -1.8121    0.0000 H   0  0  0  0  0  0  0  0  0  0  0  0
   -0.7500    1.2990    0.0000 N   0  0  0  0  0  0  0  0  0  6  0  0
    0.4895    2.7762    0.0000 H   0  0  0  0  0  0  0  0  0  0  0  0
    2.1595    1.8121    0.0000 H   0  0  0  0  0  0  0  0  0  0  0  0
   -2.6491   -0.9642    0.0000 H   0  0  0  0  0  0  0  0  0  0  0  0
   -2.6491    0.9642    0.0000 H   0  0  0  0  0  0  0  0  0  0  0  0
   -1.5000    2.5981    0.0000 C   0  0  0  0  0  0  0  0  0 28  0  0
   -0.8899    3.9684    0.0000 N   0  0  0  0  0  0  0  0  0  8  0  0
   -2.9918    2.7549    0.0000 C   0  0  0  0  0  0  0  0  0 15  0  0
    0.5773    4.2803    0.0000 C   0  0  0  0  0  0  0  0  0 26  0  0
   -2.0046    4.9721    0.0000 N   0  0  0  0  0  0  0  0  0  3  0  0
   -3.3037    4.2221    0.0000 C   0  0  0  0  0  0  0  0  0 27  0  0
   -3.9955    1.6402    0.0000 H   0  0  0  0  0  0  0  0  0  0  0  0
    1.5810    3.1655    0.0000 C   0  0  0  0  0  0  0  0  0 13  0  0
    1.0409    5.7068    0.0000 C   0  0  0  0  0  0  0  0  0 14  0  0
   -4.6740    4.8322    0.0000 C   0  0  0  0  0  0  0  0  0  9  0  0
    3.0482    3.4774    0.0000 C   0  0  0  0  0  0  0  0  0 11  0  0
    1.4765    1.6692    0.0000 H   0  0  0  0  0  0  0  0  0  0  0  0
    2.5081    6.0187    0.0000 C   0  0  0  0  0  0  0  0  0 12  0  0
    0.0372    6.8216    0.0000 H   0  0  0  0  0  0  0  0  0  0  0  0
   -6.0443    5.4423    0.0000 H   0  0  0  0  0  0  0  0  0  0  0  0
   -4.0639    6.2025    0.0000 H   0  0  0  0  0  0  0  0  0  0  0  0
   -5.2841    3.4619    0.0000 H   0  0  0  0  0  0  0  0  0  0  0  0
    3.5118    4.9040    0.0000 C   0  0  0  0  0  0  0  0  0 10  0  0
    4.0519    2.3627    0.0000 H   0  0  0  0  0  0  0  0  0  0  0  0
    2.9716    7.4453    0.0000 H   0  0  0  0  0  0  0  0  0  0  0  0
    4.9790    5.2159    0.0000 H   0  0  0  0  0  0  0  0  0  0  0  0
  1  2  1  0
  2  3  1  0
  4  1  1  0
  1  5  1  0
  1  6  1  0
  7  4  1  0
  4  8  1  0
  5  9  1  0
  9  7  1  0
  7 10  1  0
  7 11  1  0
  8 12  2  0
  8 13  1  0
  9 14  1  0
  9 15  1  0
 13 16  1  0
 17 13  1  0
 13 18  1  6
 16 19  1  0
 16 20  1  0
 21 17  1  0
 17 22  1  0
 17 23  1  0
 19 21  1  0
 19 24  1  0
 19 25  1  0
 21 26  1  0
 21 27  1  6
 26 28  1  0
 29 26  1  0
 28 30  1  0
 28 31  1  0
 28 32  1  0
 33 29  1  0
 29 34  1  0
 29 35  1  0
 30 36  1  0
 30 37  1  0
 30 38  1  0
 36 33  1  0
 33 39  1  0
 33 40  1  0
 36 41  1  0
 41 42  1  0
 43 41  2  0
 42 44  1  0
 42 45  1  0
 46 43  1  0
 43 47  1  0
 44 48  2  0
 49 44  1  0
 45 46  2  0
 46 50  1  0
 48 51  1  0
 48 52  1  0
 53 49  2  0
 49 54  1  0
 50 55  1  0
 50 56  1  0
 50 57  1  0
 51 58  2  0
 51 59  1  0
 58 53  1  0
 53 60  1  0
 58 61  1  0
M  END
>  <SMILES>  (6) 
Cc1cc(N2CCN(C3CNC(C(=O)N4CCSC4O)C3)CC2)n(-c2ccccc2)n1

>  <Molecular Weight>  (6) 
442.6

>  <Substrate_ID>  (6) 
MOL0059

>  <Substrate>  (6) 


>  <Substrate_SMILES>  (6) 
Cc1cc(N2CCN(C3CNC(C(=O)N4CCSC4)C3)CC2)n(-c2ccccc2)n1

>  <Reaction>  (6) 
aliphatic hydroxylation

>  <Score>  (6) 
0.1845

>  <Reaction_Score>  (6) 
0.1107

>  <Bond_Score>  (6) 
0.3075

>  <Rank>  (6) 
5

>  <Subtype>  (6) 
3A4

>  <Subtype_Scores>  (6) 
[3A4] SOM_score: 0.3075, Reaction_score: 0.1107, Score: 0.1845


$$$$

     RDKit          2D

 61 65  0  0  0  0  0  0  0  0999 V2000
    4.2680   -9.3309    0.0000 C   0  0  0  0  0  0  0  0  0 16  0  0
    4.5798   -7.8637    0.0000 C   0  0  0  0  0  0  0  0  0 19  0  0
    5.1899   -6.4934    0.0000 O   0  0  0  0  0  0  0  0  0 31  0  0
    3.2808   -7.1137    0.0000 N   0  0  0  0  0  0  0  0  0  5  0  0
    2.7762   -9.4877    0.0000 S   0  0  0  0  0  0  0  0  0  1  0  0
    5.7598   -9.4877    0.0000 H   0  0  0  0  0  0  0  0  0  0  0  0
    4.2680  -10.8309    0.0000 H   0  0  0  0  0  0  0  0  0  0  0  0
    2.1661   -8.1174    0.0000 C   0  0  0  0  0  0  0  0  0 20  0  0
    0.8671   -8.8674    0.0000 H   0  0  0  0  0  0  0  0  0  0  0  0
    1.3374   -7.2288    0.0000 H   0  0  0  0  0  0  0  0  0  0  0  0
    6.0064   -8.3272    0.0000 H   0  0  0  0  0  0  0  0  0  0  0  0
    3.1240   -5.6219    0.0000 C   0  0  0  0  0  0  0  0  0 25  0  0
    4.1867   -5.0329    0.0000 O   0  0  0  0  0  0  0  0  0  2  0  0
    1.7537   -5.0118    0.0000 C   0  0  0  0  0  0  0  0  0 30  0  0
    0.2865   -4.7000    0.0000 N   0  0  0  0  0  0  0  0  0  4  0  0
    2.5037   -3.7128    0.0000 C   0  0  0  0  0  0  0  0  0 18  0  0
    1.2402   -6.1130    0.0000 H   0  0  0  0  0  0  0  0  0  0  0  0
    0.1297   -3.2082    0.0000 C   0  0  0  0  0  0  0  0  0 17  0  0
   -0.8282   -5.7037    0.0000 H   0  0  0  0  0  0  0  0  0  0  0  0
    1.5000   -2.5981    0.0000 C   0  0  0  0  0  0  0  0  0 29  0  0
    3.5074   -2.5981    0.0000 H   0  0  0  0  0  0  0  0  0  0  0  0
    3.5664   -4.3018    0.0000 H   0  0  0  0  0  0  0  0  0  0  0  0
   -1.1908   -3.4889    0.0000 H   0  0  0  0  0  0  0  0  0  0  0  0
   -0.2928   -2.5322    0.0000 H   0  0  0  0  0  0  0  0  0  0  0  0
    0.7500   -1.2990    0.0000 N   0  0  0  0  0  0  0  0  0  7  0  0
    2.8119   -1.8709    0.0000 H   0  0  0  0  0  0  0  0  0  0  0  0
    1.5000    0.0000    0.0000 C   0  0  0  0  0  0  0  0  0 23  0  0
   -0.7500   -1.2990    0.0000 C   0  0  0  0  0  0  0  0  0 24  0  0
    0.7500    1.2990    0.0000 C   0  0  0  0  0  0  0  0  0 21  0  0
    2.6491    0.9642    0.0000 H   0  0  0  0  0  0  0  0  0  0  0  0
    2.7580   -0.8169    0.0000 H   0  0  0  0  0  0  0  0  0  0  0  0
   -1.5000    0.0000    0.0000 C   0  0  0  0  0  0  0  0  0 22  0  0
   -0.8118   -2.1826    0.0000 H   0  0  0  0  0  0  0  0  0  0  0  0
   -2.1595   -1.8121    0.0000 H   0  0  0  0  0  0  0  0  0  0  0  0
   -0.7500    1.2990    0.0000 N   0  0  0  0  0  0  0  0  0  6  0  0
    0.4895    2.7762    0.0000 H   0  0  0  0  0  0  0  0  0  0  0  0
    2.1595    1.8121    0.0000 H   0  0  0  0  0  0  0  0  0  0  0  0
   -2.6491   -0.9642    0.0000 H   0  0  0  0  0  0  0  0  0  0  0  0
   -2.6491    0.9642    0.0000 H   0  0  0  0  0  0  0  0  0  0  0  0
   -1.5000    2.5981    0.0000 C   0  0  0  0  0  0  0  0  0 28  0  0
   -0.8899    3.9684    0.0000 N   0  0  0  0  0  0  0  0  0  8  0  0
   -2.9918    2.7549    0.0000 C   0  0  0  0  0  0  0  0  0 15  0  0
    0.5773    4.2803    0.0000 C   0  0  0  0  0  0  0  0  0 26  0  0
   -2.0046    4.9721    0.0000 N   0  0  0  0  0  0  0  0  0  3  0  0
   -3.3037    4.2221    0.0000 C   0  0  0  0  0  0  0  0  0 27  0  0
   -3.9955    1.6402    0.0000 H   0  0  0  0  0  0  0  0  0  0  0  0
    1.5810    3.1655    0.0000 C   0  0  0  0  0  0  0  0  0 13  0  0
    1.0409    5.7068    0.0000 C   0  0  0  0  0  0  0  0  0 14  0  0
   -4.6740    4.8322    0.0000 C   0  0  0  0  0  0  0  0  0  9  0  0
    3.0482    3.4774    0.0000 C   0  0  0  0  0  0  0  0  0 11  0  0
    1.4765    1.6692    0.0000 H   0  0  0  0  0  0  0  0  0  0  0  0
    2.5081    6.0187    0.0000 C   0  0  0  0  0  0  0  0  0 12  0  0
    0.0372    6.8216    0.0000 H   0  0  0  0  0  0  0  0  0  0  0  0
   -6.0443    5.4423    0.0000 H   0  0  0  0  0  0  0  0  0  0  0  0
   -4.0639    6.2025    0.0000 H   0  0  0  0  0  0  0  0  0  0  0  0
   -5.2841    3.4619    0.0000 H   0  0  0  0  0  0  0  0  0  0  0  0
    3.5118    4.9040    0.0000 C   0  0  0  0  0  0  0  0  0 10  0  0
    4.0519    2.3627    0.0000 H   0  0  0  0  0  0  0  0  0  0  0  0
    2.9716    7.4453    0.0000 H   0  0  0  0  0  0  0  0  0  0  0  0
    4.9790    5.2159    0.0000 H   0  0  0  0  0  0  0  0  0  0  0  0
    6.6817   -6.3366    0.0000 H   0  0  0  0  0  0  0  0  0  0  0  0
  1  2  1  0
  2  3  1  0
  2  4  1  0
  5  1  1  0
  1  6  1  0
  1  7  1  0
  8  5  1  0
  4  8  1  0
  8  9  1  0
  8 10  1  0
  2 11  1  0
  4 12  1  0
 12 13  2  0
 12 14  1  0
 14 15  1  0
 16 14  1  0
 14 17  1  6
 15 18  1  0
 15 19  1  0
 20 16  1  0
 16 21  1  0
 16 22  1  0
 18 20  1  0
 18 23  1  0
 18 24  1  0
 20 25  1  0
 20 26  1  6
 25 27  1  0
 28 25  1  0
 27 29  1  0
 27 30  1  0
 27 31  1  0
 32 28  1  0
 28 33  1  0
 28 34  1  0
 29 35  1  0
 29 36  1  0
 29 37  1  0
 35 32  1  0
 32 38  1  0
 32 39  1  0
 35 40  1  0
 40 41  1  0
 42 40  2  0
 41 43  1  0
 41 44  1  0
 45 42  1  0
 42 46  1  0
 43 47  2  0
 48 43  1  0
 44 45  2  0
 45 49  1  0
 47 50  1  0
 47 51  1  0
 52 48  2  0
 48 53  1  0
 49 54  1  0
 49 55  1  0
 49 56  1  0
 50 57  2  0
 50 58  1  0
 57 52  1  0
 52 59  1  0
 57 60  1  0
  3 61  1  0
M  END
>  <SMILES>  (7) 
Cc1cc(N2CCN(C3CNC(C(=O)N4CSCC4O)C3)CC2)n(-c2ccccc2)n1

>  <Molecular Weight>  (7) 
442.6

>  <Substrate_ID>  (7) 
MOL0059

>  <Substrate>  (7) 


>  <Substrate_SMILES>  (7) 
Cc1cc(N2CCN(C3CNC(C(=O)N4CCSC4)C3)CC2)n(-c2ccccc2)n1

>  <Reaction>  (7) 
aliphatic_hydroxylation_(sec_carbon_next_to_SP2,in_a_ring),aliphatic hydroxylation

>  <Score>  (7) 
0.1667

>  <Reaction_Score>  (7) 
0.1402

>  <Bond_Score>  (7) 
0.1982

>  <Rank>  (7) 
6

>  <Subtype>  (7) 
3A4

>  <Subtype_Scores>  (7) 
[3A4] SOM_score: 0.1982, Reaction_score: 0.1402, Score: 0.1667


$$$$

     RDKit          2D

 59 63  0  0  0  0  0  0  0  0999 V2000
    2.7762   -9.4877    0.0000 C   0  0  0  0  0  0  0  0  0 16  0  0
    2.1661   -8.1174    0.0000 C   0  0  0  0  0  0  0  0  0 19  0  0
    0.6989   -7.8055    0.0000 O   0  0  0  0  0  0  0  0  0 31  0  0
    3.2808   -7.1137    0.0000 N   0  0  0  0  0  0  0  0  0  5  0  0
    4.2680   -9.3309    0.0000 S   0  0  0  0  0  0  0  0  0  1  0  0
    1.3496   -9.9513    0.0000 H   0  0  0  0  0  0  0  0  0  0  0  0
    3.0881  -10.9550    0.0000 H   0  0  0  0  0  0  0  0  0  0  0  0
    4.5798   -7.8637    0.0000 C   0  0  0  0  0  0  0  0  0 20  0  0
    6.0064   -8.3272    0.0000 H   0  0  0  0  0  0  0  0  0  0  0  0
    5.1899   -6.4934    0.0000 H   0  0  0  0  0  0  0  0  0  0  0  0
    3.1240   -5.6219    0.0000 C   0  0  0  0  0  0  0  0  0 25  0  0
    4.1867   -5.0329    0.0000 O   0  0  0  0  0  0  0  0  0  2  0  0
    1.7537   -5.0118    0.0000 C   0  0  0  0  0  0  0  0  0 30  0  0
    0.2865   -4.7000    0.0000 N   0  0  0  0  0  0  0  0  0  4  0  0
    2.5037   -3.7128    0.0000 C   0  0  0  0  0  0  0  0  0 18  0  0
    1.2902   -6.4384    0.0000 H   0  0  0  0  0  0  0  0  0  0  0  0
    0.1297   -3.2082    0.0000 C   0  0  0  0  0  0  0  0  0 17  0  0
   -0.8282   -5.7037    0.0000 H   0  0  0  0  0  0  0  0  0  0  0  0
    1.5000   -2.5981    0.0000 C   0  0  0  0  0  0  0  0  0 29  0  0
    3.5074   -2.5981    0.0000 H   0  0  0  0  0  0  0  0  0  0  0  0
    3.5664   -4.3018    0.0000 H   0  0  0  0  0  0  0  0  0  0  0  0
   -1.1908   -3.4889    0.0000 H   0  0  0  0  0  0  0  0  0  0  0  0
   -0.2928   -2.5322    0.0000 H   0  0  0  0  0  0  0  0  0  0  0  0
    0.7500   -1.2990    0.0000 N   0  0  0  0  0  0  0  0  0  7  0  0
    2.8119   -1.8709    0.0000 H   0  0  0  0  0  0  0  0  0  0  0  0
    1.5000    0.0000    0.0000 C   0  0  0  0  0  0  0  0  0 23  0  0
   -0.7500   -1.2990    0.0000 C   0  0  0  0  0  0  0  0  0 24  0  0
    0.7500    1.2990    0.0000 C   0  0  0  0  0  0  0  0  0 21  0  0
    2.6491    0.9642    0.0000 H   0  0  0  0  0  0  0  0  0  0  0  0
    2.7580   -0.8169    0.0000 H   0  0  0  0  0  0  0  0  0  0  0  0
   -1.5000    0.0000    0.0000 C   0  0  0  0  0  0  0  0  0 22  0  0
   -0.8118   -2.1826    0.0000 H   0  0  0  0  0  0  0  0  0  0  0  0
   -2.1595   -1.8121    0.0000 H   0  0  0  0  0  0  0  0  0  0  0  0
   -0.7500    1.2990    0.0000 N   0  0  0  0  0  0  0  0  0  6  0  0
    0.4895    2.7762    0.0000 H   0  0  0  0  0  0  0  0  0  0  0  0
    2.1595    1.8121    0.0000 H   0  0  0  0  0  0  0  0  0  0  0  0
   -2.6491   -0.9642    0.0000 H   0  0  0  0  0  0  0  0  0  0  0  0
   -2.6491    0.9642    0.0000 H   0  0  0  0  0  0  0  0  0  0  0  0
   -1.5000    2.5981    0.0000 C   0  0  0  0  0  0  0  0  0 28  0  0
   -0.8899    3.9684    0.0000 N   0  0  0  0  0  0  0  0  0  8  0  0
   -2.9918    2.7549    0.0000 C   0  0  0  0  0  0  0  0  0 15  0  0
    0.5773    4.2803    0.0000 C   0  0  0  0  0  0  0  0  0 26  0  0
   -2.0046    4.9721    0.0000 N   0  0  0  0  0  0  0  0  0  3  0  0
   -3.3037    4.2221    0.0000 C   0  0  0  0  0  0  0  0  0 27  0  0
   -3.9955    1.6402    0.0000 H   0  0  0  0  0  0  0  0  0  0  0  0
    1.5810    3.1655    0.0000 C   0  0  0  0  0  0  0  0  0 13  0  0
    1.0409    5.7068    0.0000 C   0  0  0  0  0  0  0  0  0 14  0  0
   -4.6740    4.8322    0.0000 C   0  0  0  0  0  0  0  0  0  9  0  0
    3.0482    3.4774    0.0000 C   0  0  0  0  0  0  0  0  0 11  0  0
    1.4765    1.6692    0.0000 H   0  0  0  0  0  0  0  0  0  0  0  0
    2.5081    6.0187    0.0000 C   0  0  0  0  0  0  0  0  0 12  0  0
    0.0372    6.8216    0.0000 H   0  0  0  0  0  0  0  0  0  0  0  0
   -6.0443    5.4423    0.0000 H   0  0  0  0  0  0  0  0  0  0  0  0
   -4.0639    6.2025    0.0000 H   0  0  0  0  0  0  0  0  0  0  0  0
   -5.2841    3.4619    0.0000 H   0  0  0  0  0  0  0  0  0  0  0  0
    3.5118    4.9040    0.0000 C   0  0  0  0  0  0  0  0  0 10  0  0
    4.0519    2.3627    0.0000 H   0  0  0  0  0  0  0  0  0  0  0  0
    2.9716    7.4453    0.0000 H   0  0  0  0  0  0  0  0  0  0  0  0
    4.9790    5.2159    0.0000 H   0  0  0  0  0  0  0  0  0  0  0  0
  1  2  1  0
  2  3  2  0
  2  4  1  0
  5  1  1  0
  1  6  1  0
  1  7  1  0
  8  5  1  0
  4  8  1  0
  8  9  1  0
  8 10  1  0
  4 11  1  0
 11 12  2  0
 11 13  1  0
 13 14  1  0
 15 13  1  0
 13 16  1  6
 14 17  1  0
 14 18  1  0
 19 15  1  0
 15 20  1  0
 15 21  1  0
 17 19  1  0
 17 22  1  0
 17 23  1  0
 19 24  1  0
 19 25  1  6
 24 26  1  0
 27 24  1  0
 26 28  1  0
 26 29  1  0
 26 30  1  0
 31 27  1  0
 27 32  1  0
 27 33  1  0
 28 34  1  0
 28 35  1  0
 28 36  1  0
 34 31  1  0
 31 37  1  0
 31 38  1  0
 34 39  1  0
 39 40  1  0
 41 39  2  0
 40 42  1  0
 40 43  1  0
 44 41  1  0
 41 45  1  0
 42 46  2  0
 47 42  1  0
 43 44  2  0
 44 48  1  0
 46 49  1  0
 46 50  1  0
 51 47  2  0
 47 52  1  0
 48 53  1  0
 48 54  1  0
 48 55  1  0
 49 56  2  0
 49 57  1  0
 56 51  1  0
 51 58  1  0
 56 59  1  0
M  END
>  <SMILES>  (8) 
Cc1cc(N2CCN(C3CNC(C(=O)N4CSCC4=O)C3)CC2)n(-c2ccccc2)n1

>  <Molecular Weight>  (8) 
440.6

>  <Substrate_ID>  (8) 
MOL0059

>  <Substrate>  (8) 


>  <Substrate_SMILES>  (8) 
Cc1cc(N2CCN(C3CNC(C(=O)N4CCSC4)C3)CC2)n(-c2ccccc2)n1

>  <Reaction>  (8) 
oxidation_(amine_in_a_ring)

>  <Score>  (8) 
0.1667

>  <Reaction_Score>  (8) 
0.1402

>  <Bond_Score>  (8) 
0.1982

>  <Rank>  (8) 
6

>  <Subtype>  (8) 
3A4

>  <Subtype_Scores>  (8) 
[3A4] SOM_score: 0.1982, Reaction_score: 0.1402, Score: 0.1667


$$$$

     RDKit          2D

 61 65  0  0  0  0  0  0  0  0999 V2000
    4.2680   -9.3309    0.0000 C   0  0  0  0  0  0  0  0  0 16  0  0
    4.2680  -10.8309    0.0000 O   0  0  0  0  0  0  0  0  0 31  0  0
    5.5670  -11.5809    0.0000 H   0  0  0  0  0  0  0  0  0  0  0  0
    2.7762   -9.4877    0.0000 S   0  0  0  0  0  0  0  0  0  1  0  0
    4.5798   -7.8637    0.0000 C   0  0  0  0  0  0  0  0  0 19  0  0
    5.7598   -9.4877    0.0000 H   0  0  0  0  0  0  0  0  0  0  0  0
    2.1661   -8.1174    0.0000 C   0  0  0  0  0  0  0  0  0 20  0  0
    3.2808   -7.1137    0.0000 N   0  0  0  0  0  0  0  0  0  5  0  0
    6.0064   -8.3272    0.0000 H   0  0  0  0  0  0  0  0  0  0  0  0
    5.1899   -6.4934    0.0000 H   0  0  0  0  0  0  0  0  0  0  0  0
    1.3374   -7.2288    0.0000 H   0  0  0  0  0  0  0  0  0  0  0  0
    0.8671   -8.8674    0.0000 H   0  0  0  0  0  0  0  0  0  0  0  0
    3.1240   -5.6219    0.0000 C   0  0  0  0  0  0  0  0  0 25  0  0
    4.1867   -5.0329    0.0000 O   0  0  0  0  0  0  0  0  0  2  0  0
    1.7537   -5.0118    0.0000 C   0  0  0  0  0  0  0  0  0 30  0  0
    0.2865   -4.7000    0.0000 N   0  0  0  0  0  0  0  0  0  4  0  0
    2.5037   -3.7128    0.0000 C   0  0  0  0  0  0  0  0  0 18  0  0
    1.2402   -6.1130    0.0000 H   0  0  0  0  0  0  0  0  0  0  0  0
    0.1297   -3.2082    0.0000 C   0  0  0  0  0  0  0  0  0 17  0  0
   -0.8282   -5.7037    0.0000 H   0  0  0  0  0  0  0  0  0  0  0  0
    1.5000   -2.5981    0.0000 C   0  0  0  0  0  0  0  0  0 29  0  0
    3.5074   -2.5981    0.0000 H   0  0  0  0  0  0  0  0  0  0  0  0
    3.5664   -4.3018    0.0000 H   0  0  0  0  0  0  0  0  0  0  0  0
   -1.1908   -3.4889    0.0000 H   0  0  0  0  0  0  0  0  0  0  0  0
   -0.2928   -2.5322    0.0000 H   0  0  0  0  0  0  0  0  0  0  0  0
    0.7500   -1.2990    0.0000 N   0  0  0  0  0  0  0  0  0  7  0  0
    2.8119   -1.8709    0.0000 H   0  0  0  0  0  0  0  0  0  0  0  0
    1.5000    0.0000    0.0000 C   0  0  0  0  0  0  0  0  0 23  0  0
   -0.7500   -1.2990    0.0000 C   0  0  0  0  0  0  0  0  0 24  0  0
    0.7500    1.2990    0.0000 C   0  0  0  0  0  0  0  0  0 21  0  0
    2.6491    0.9642    0.0000 H   0  0  0  0  0  0  0  0  0  0  0  0
    2.7580   -0.8169    0.0000 H   0  0  0  0  0  0  0  0  0  0  0  0
   -1.5000    0.0000    0.0000 C   0  0  0  0  0  0  0  0  0 22  0  0
   -0.8118   -2.1826    0.0000 H   0  0  0  0  0  0  0  0  0  0  0  0
   -2.1595   -1.8121    0.0000 H   0  0  0  0  0  0  0  0  0  0  0  0
   -0.7500    1.2990    0.0000 N   0  0  0  0  0  0  0  0  0  6  0  0
    0.4895    2.7762    0.0000 H   0  0  0  0  0  0  0  0  0  0  0  0
    2.1595    1.8121    0.0000 H   0  0  0  0  0  0  0  0  0  0  0  0
   -2.6491   -0.9642    0.0000 H   0  0  0  0  0  0  0  0  0  0  0  0
   -2.6491    0.9642    0.0000 H   0  0  0  0  0  0  0  0  0  0  0  0
   -1.5000    2.5981    0.0000 C   0  0  0  0  0  0  0  0  0 28  0  0
   -0.8899    3.9684    0.0000 N   0  0  0  0  0  0  0  0  0  8  0  0
   -2.9918    2.7549    0.0000 C   0  0  0  0  0  0  0  0  0 15  0  0
    0.5773    4.2803    0.0000 C   0  0  0  0  0  0  0  0  0 26  0  0
   -2.0046    4.9721    0.0000 N   0  0  0  0  0  0  0  0  0  3  0  0
   -3.3037    4.2221    0.0000 C   0  0  0  0  0  0  0  0  0 27  0  0
   -3.9955    1.6402    0.0000 H   0  0  0  0  0  0  0  0  0  0  0  0
    1.5810    3.1655    0.0000 C   0  0  0  0  0  0  0  0  0 13  0  0
    1.0409    5.7068    0.0000 C   0  0  0  0  0  0  0  0  0 14  0  0
   -4.6740    4.8322    0.0000 C   0  0  0  0  0  0  0  0  0  9  0  0
    3.0482    3.4774    0.0000 C   0  0  0  0  0  0  0  0  0 11  0  0
    1.4765    1.6692    0.0000 H   0  0  0  0  0  0  0  0  0  0  0  0
    2.5081    6.0187    0.0000 C   0  0  0  0  0  0  0  0  0 12  0  0
    0.0372    6.8216    0.0000 H   0  0  0  0  0  0  0  0  0  0  0  0
   -6.0443    5.4423    0.0000 H   0  0  0  0  0  0  0  0  0  0  0  0
   -4.0639    6.2025    0.0000 H   0  0  0  0  0  0  0  0  0  0  0  0
   -5.2841    3.4619    0.0000 H   0  0  0  0  0  0  0  0  0  0  0  0
    3.5118    4.9040    0.0000 C   0  0  0  0  0  0  0  0  0 10  0  0
    4.0519    2.3627    0.0000 H   0  0  0  0  0  0  0  0  0  0  0  0
    2.9716    7.4453    0.0000 H   0  0  0  0  0  0  0  0  0  0  0  0
    4.9790    5.2159    0.0000 H   0  0  0  0  0  0  0  0  0  0  0  0
  1  2  1  0
  2  3  1  0
  4  1  1  0
  1  5  1  0
  1  6  1  0
  7  4  1  0
  5  8  1  0
  5  9  1  0
  5 10  1  0
  8  7  1  0
  7 11  1  0
  7 12  1  0
  8 13  1  0
 13 14  2  0
 13 15  1  0
 15 16  1  0
 17 15  1  0
 15 18  1  6
 16 19  1  0
 16 20  1  0
 21 17  1  0
 17 22  1  0
 17 23  1  0
 19 21  1  0
 19 24  1  0
 19 25  1  0
 21 26  1  0
 21 27  1  6
 26 28  1  0
 29 26  1  0
 28 30  1  0
 28 31  1  0
 28 32  1  0
 33 29  1  0
 29 34  1  0
 29 35  1  0
 30 36  1  0
 30 37  1  0
 30 38  1  0
 36 33  1  0
 33 39  1  0
 33 40  1  0
 36 41  1  0
 41 42  1  0
 43 41  2  0
 42 44  1  0
 42 45  1  0
 46 43  1  0
 43 47  1  0
 44 48  2  0
 49 44  1  0
 45 46  2  0
 46 50  1  0
 48 51  1  0
 48 52  1  0
 53 49  2  0
 49 54  1  0
 50 55  1  0
 50 56  1  0
 50 57  1  0
 51 58  2  0
 51 59  1  0
 58 53  1  0
 53 60  1  0
 58 61  1  0
M  END
>  <SMILES>  (9) 
Cc1cc(N2CCN(C3CNC(C(=O)N4CSC(O)C4)C3)CC2)n(-c2ccccc2)n1

>  <Molecular Weight>  (9) 
442.6

>  <Substrate_ID>  (9) 
MOL0059

>  <Substrate>  (9) 


>  <Substrate_SMILES>  (9) 
Cc1cc(N2CCN(C3CNC(C(=O)N4CCSC4)C3)CC2)n(-c2ccccc2)n1

>  <Reaction>  (9) 
aliphatic hydroxylation

>  <Score>  (9) 
0.1468

>  <Reaction_Score>  (9) 
0.0959

>  <Bond_Score>  (9) 
0.2249

>  <Rank>  (9) 
7

>  <Subtype>  (9) 
3A4

>  <Subtype_Scores>  (9) 
[3A4] SOM_score: 0.2249, Reaction_score: 0.0959, Score: 0.1468


$$$$

     RDKit          2D

 61 64  0  0  0  0  0  0  0  0999 V2000
   -1.5542   -9.7854    0.0000 C   0  0  0  0  0  0  0  0  0 16  0  0
   -1.7110  -11.2772    0.0000 S   0  0  0  0  0  0  0  0  0  1  0  0
   -3.0813  -11.8873    0.0000 H   0  0  0  0  0  0  0  0  0  0  0  0
   -2.4542   -5.9202    0.0000 C   0  0  0  0  0  0  0  0  0 20  0  0
   -3.8245   -6.5303    0.0000 O   0  0  0  0  0  0  0  0  0 31  0  0
   -1.3974   -8.2936    0.0000 C   0  0  0  0  0  0  0  0  0 19  0  0
   -3.0460   -9.6286    0.0000 H   0  0  0  0  0  0  0  0  0  0  0  0
   -0.0624   -9.9422    0.0000 H   0  0  0  0  0  0  0  0  0  0  0  0
   -1.2406   -6.8019    0.0000 N   0  0  0  0  0  0  0  0  0  5  0  0
    0.0944   -8.4504    0.0000 H   0  0  0  0  0  0  0  0  0  0  0  0
   -2.8892   -8.1368    0.0000 H   0  0  0  0  0  0  0  0  0  0  0  0
    0.1297   -6.1917    0.0000 C   0  0  0  0  0  0  0  0  0 25  0  0
    1.3432   -7.0734    0.0000 O   0  0  0  0  0  0  0  0  0  2  0  0
    0.2865   -4.7000    0.0000 C   0  0  0  0  0  0  0  0  0 30  0  0
    1.7537   -5.0118    0.0000 N   0  0  0  0  0  0  0  0  0  4  0  0
    0.1297   -3.2082    0.0000 C   0  0  0  0  0  0  0  0  0 18  0  0
   -1.2135   -4.7000    0.0000 H   0  0  0  0  0  0  0  0  0  0  0  0
    2.5037   -3.7128    0.0000 C   0  0  0  0  0  0  0  0  0 17  0  0
    2.3638   -6.3821    0.0000 H   0  0  0  0  0  0  0  0  0  0  0  0
    1.5000   -2.5981    0.0000 C   0  0  0  0  0  0  0  0  0 29  0  0
   -1.1908   -3.4889    0.0000 H   0  0  0  0  0  0  0  0  0  0  0  0
   -0.2928   -2.5322    0.0000 H   0  0  0  0  0  0  0  0  0  0  0  0
    3.5074   -2.5981    0.0000 H   0  0  0  0  0  0  0  0  0  0  0  0
    3.7172   -4.5945    0.0000 H   0  0  0  0  0  0  0  0  0  0  0  0
    0.7500   -1.2990    0.0000 N   0  0  0  0  0  0  0  0  0  7  0  0
    2.8119   -1.8709    0.0000 H   0  0  0  0  0  0  0  0  0  0  0  0
    1.5000    0.0000    0.0000 C   0  0  0  0  0  0  0  0  0 23  0  0
   -0.7500   -1.2990    0.0000 C   0  0  0  0  0  0  0  0  0 24  0  0
    0.7500    1.2990    0.0000 C   0  0  0  0  0  0  0  0  0 21  0  0
    2.6491    0.9642    0.0000 H   0  0  0  0  0  0  0  0  0  0  0  0
    2.7580   -0.8169    0.0000 H   0  0  0  0  0  0  0  0  0  0  0  0
   -1.5000    0.0000    0.0000 C   0  0  0  0  0  0  0  0  0 22  0  0
   -0.8118   -2.1826    0.0000 H   0  0  0  0  0  0  0  0  0  0  0  0
   -2.1595   -1.8121    0.0000 H   0  0  0  0  0  0  0  0  0  0  0  0
   -0.7500    1.2990    0.0000 N   0  0  0  0  0  0  0  0  0  6  0  0
    0.4895    2.7762    0.0000 H   0  0  0  0  0  0  0  0  0  0  0  0
    2.1595    1.8121    0.0000 H   0  0  0  0  0  0  0  0  0  0  0  0
   -2.6491   -0.9642    0.0000 H   0  0  0  0  0  0  0  0  0  0  0  0
   -2.6491    0.9642    0.0000 H   0  0  0  0  0  0  0  0  0  0  0  0
   -1.5000    2.5981    0.0000 C   0  0  0  0  0  0  0  0  0 28  0  0
   -0.8899    3.9684    0.0000 N   0  0  0  0  0  0  0  0  0  8  0  0
   -2.9918    2.7549    0.0000 C   0  0  0  0  0  0  0  0  0 15  0  0
    0.5773    4.2803    0.0000 C   0  0  0  0  0  0  0  0  0 26  0  0
   -2.0046    4.9721    0.0000 N   0  0  0  0  0  0  0  0  0  3  0  0
   -3.3037    4.2221    0.0000 C   0  0  0  0  0  0  0  0  0 27  0  0
   -3.9955    1.6402    0.0000 H   0  0  0  0  0  0  0  0  0  0  0  0
    1.5810    3.1655    0.0000 C   0  0  0  0  0  0  0  0  0 13  0  0
    1.0409    5.7068    0.0000 C   0  0  0  0  0  0  0  0  0 14  0  0
   -4.6740    4.8322    0.0000 C   0  0  0  0  0  0  0  0  0  9  0  0
    3.0482    3.4774    0.0000 C   0  0  0  0  0  0  0  0  0 11  0  0
    1.4765    1.6692    0.0000 H   0  0  0  0  0  0  0  0  0  0  0  0
    2.5081    6.0187    0.0000 C   0  0  0  0  0  0  0  0  0 12  0  0
    0.0372    6.8216    0.0000 H   0  0  0  0  0  0  0  0  0  0  0  0
   -6.0443    5.4423    0.0000 H   0  0  0  0  0  0  0  0  0  0  0  0
   -4.0639    6.2025    0.0000 H   0  0  0  0  0  0  0  0  0  0  0  0
   -5.2841    3.4619    0.0000 H   0  0  0  0  0  0  0  0  0  0  0  0
    3.5118    4.9040    0.0000 C   0  0  0  0  0  0  0  0  0 10  0  0
    4.0519    2.3627    0.0000 H   0  0  0  0  0  0  0  0  0  0  0  0
    2.9716    7.4453    0.0000 H   0  0  0  0  0  0  0  0  0  0  0  0
    4.9790    5.2159    0.0000 H   0  0  0  0  0  0  0  0  0  0  0  0
   -2.2974   -4.4284    0.0000 H   0  0  0  0  0  0  0  0  0  0  0  0
  1  2  1  0
  2  3  1  0
  4  5  2  0
  1  6  1  0
  1  7  1  0
  1  8  1  0
  6  9  1  0
  6 10  1  0
  6 11  1  0
  9 12  1  0
  9  4  1  0
 12 13  2  0
 12 14  1  0
 14 15  1  0
 16 14  1  0
 14 17  1  1
 15 18  1  0
 15 19  1  0
 20 16  1  0
 16 21  1  0
 16 22  1  0
 18 20  1  0
 18 23  1  0
 18 24  1  0
 20 25  1  0
 20 26  1  1
 25 27  1  0
 28 25  1  0
 27 29  1  0
 27 30  1  0
 27 31  1  0
 32 28  1  0
 28 33  1  0
 28 34  1  0
 29 35  1  0
 29 36  1  0
 29 37  1  0
 35 32  1  0
 32 38  1  0
 32 39  1  0
 35 40  1  0
 40 41  1  0
 42 40  2  0
 41 43  1  0
 41 44  1  0
 45 42  1  0
 42 46  1  0
 43 47  2  0
 48 43  1  0
 44 45  2  0
 45 49  1  0
 47 50  1  0
 47 51  1  0
 52 48  2  0
 48 53  1  0
 49 54  1  0
 49 55  1  0
 49 56  1  0
 50 57  2  0
 50 58  1  0
 57 52  1  0
 52 59  1  0
 57 60  1  0
  4 61  1  0
M  END
>  <SMILES>  (10) 
Cc1cc(N2CCN(C3CNC(C(=O)N(C=O)CCS)C3)CC2)n(-c2ccccc2)n1

>  <Molecular Weight>  (10) 
442.6

>  <Substrate_ID>  (10) 
MOL0059

>  <Substrate>  (10) 


>  <Substrate_SMILES>  (10) 
Cc1cc(N2CCN(C3CNC(C(=O)N4CCSC4)C3)CC2)n(-c2ccccc2)n1

>  <Reaction>  (10) 
S-dealkylation

>  <Score>  (10) 
0.0745

>  <Reaction_Score>  (10) 
0.0343

>  <Bond_Score>  (10) 
0.1617

>  <Rank>  (10) 
8

>  <Subtype>  (10) 
3A4

>  <Subtype_Scores>  (10) 
[3A4] SOM_score: 0.1617, Reaction_score: 0.0343, Score: 0.0745


$$$$

     RDKit          2D

 61 64  0  0  0  0  0  0  0  0999 V2000
   -2.4542   -5.9202    0.0000 C   0  0  0  0  0  0  0  0  0 20  0  0
   -3.6677   -5.0385    0.0000 S   0  0  0  0  0  0  0  0  0  1  0  0
   -5.0380   -5.6486    0.0000 H   0  0  0  0  0  0  0  0  0  0  0  0
   -1.5542   -9.7854    0.0000 C   0  0  0  0  0  0  0  0  0 16  0  0
   -2.9245  -10.3955    0.0000 O   0  0  0  0  0  0  0  0  0 31  0  0
   -1.2406   -6.8019    0.0000 N   0  0  0  0  0  0  0  0  0  5  0  0
   -1.8651   -4.8575    0.0000 H   0  0  0  0  0  0  0  0  0  0  0  0
   -3.3358   -7.1337    0.0000 H   0  0  0  0  0  0  0  0  0  0  0  0
   -1.3974   -8.2936    0.0000 C   0  0  0  0  0  0  0  0  0 19  0  0
    0.1297   -6.1917    0.0000 C   0  0  0  0  0  0  0  0  0 25  0  0
    0.0944   -8.4504    0.0000 H   0  0  0  0  0  0  0  0  0  0  0  0
   -2.8892   -8.1368    0.0000 H   0  0  0  0  0  0  0  0  0  0  0  0
    1.3432   -7.0734    0.0000 O   0  0  0  0  0  0  0  0  0  2  0  0
    0.2865   -4.7000    0.0000 C   0  0  0  0  0  0  0  0  0 30  0  0
    1.7537   -5.0118    0.0000 N   0  0  0  0  0  0  0  0  0  4  0  0
    0.1297   -3.2082    0.0000 C   0  0  0  0  0  0  0  0  0 18  0  0
   -0.9195   -4.5519    0.0000 H   0  0  0  0  0  0  0  0  0  0  0  0
    2.5037   -3.7128    0.0000 C   0  0  0  0  0  0  0  0  0 17  0  0
    2.3638   -6.3821    0.0000 H   0  0  0  0  0  0  0  0  0  0  0  0
    1.5000   -2.5981    0.0000 C   0  0  0  0  0  0  0  0  0 29  0  0
   -1.1908   -3.4889    0.0000 H   0  0  0  0  0  0  0  0  0  0  0  0
   -0.2928   -2.5322    0.0000 H   0  0  0  0  0  0  0  0  0  0  0  0
    3.5074   -2.5981    0.0000 H   0  0  0  0  0  0  0  0  0  0  0  0
    3.7172   -4.5945    0.0000 H   0  0  0  0  0  0  0  0  0  0  0  0
    0.7500   -1.2990    0.0000 N   0  0  0  0  0  0  0  0  0  7  0  0
    2.8119   -1.8709    0.0000 H   0  0  0  0  0  0  0  0  0  0  0  0
    1.5000    0.0000    0.0000 C   0  0  0  0  0  0  0  0  0 23  0  0
   -0.7500   -1.2990    0.0000 C   0  0  0  0  0  0  0  0  0 24  0  0
    0.7500    1.2990    0.0000 C   0  0  0  0  0  0  0  0  0 21  0  0
    2.6491    0.9642    0.0000 H   0  0  0  0  0  0  0  0  0  0  0  0
    2.7580   -0.8169    0.0000 H   0  0  0  0  0  0  0  0  0  0  0  0
   -1.5000    0.0000    0.0000 C   0  0  0  0  0  0  0  0  0 22  0  0
   -0.8118   -2.1826    0.0000 H   0  0  0  0  0  0  0  0  0  0  0  0
   -2.1595   -1.8121    0.0000 H   0  0  0  0  0  0  0  0  0  0  0  0
   -0.7500    1.2990    0.0000 N   0  0  0  0  0  0  0  0  0  6  0  0
    0.4895    2.7762    0.0000 H   0  0  0  0  0  0  0  0  0  0  0  0
    2.1595    1.8121    0.0000 H   0  0  0  0  0  0  0  0  0  0  0  0
   -2.6491   -0.9642    0.0000 H   0  0  0  0  0  0  0  0  0  0  0  0
   -2.6491    0.9642    0.0000 H   0  0  0  0  0  0  0  0  0  0  0  0
   -1.5000    2.5981    0.0000 C   0  0  0  0  0  0  0  0  0 28  0  0
   -0.8899    3.9684    0.0000 N   0  0  0  0  0  0  0  0  0  8  0  0
   -2.9918    2.7549    0.0000 C   0  0  0  0  0  0  0  0  0 15  0  0
    0.5773    4.2803    0.0000 C   0  0  0  0  0  0  0  0  0 26  0  0
   -2.0046    4.9721    0.0000 N   0  0  0  0  0  0  0  0  0  3  0  0
   -3.3037    4.2221    0.0000 C   0  0  0  0  0  0  0  0  0 27  0  0
   -3.9955    1.6402    0.0000 H   0  0  0  0  0  0  0  0  0  0  0  0
    1.5810    3.1655    0.0000 C   0  0  0  0  0  0  0  0  0 13  0  0
    1.0409    5.7068    0.0000 C   0  0  0  0  0  0  0  0  0 14  0  0
   -4.6740    4.8322    0.0000 C   0  0  0  0  0  0  0  0  0  9  0  0
    3.0482    3.4774    0.0000 C   0  0  0  0  0  0  0  0  0 11  0  0
    1.4765    1.6692    0.0000 H   0  0  0  0  0  0  0  0  0  0  0  0
    2.5081    6.0187    0.0000 C   0  0  0  0  0  0  0  0  0 12  0  0
    0.0372    6.8216    0.0000 H   0  0  0  0  0  0  0  0  0  0  0  0
   -6.0443    5.4423    0.0000 H   0  0  0  0  0  0  0  0  0  0  0  0
   -4.0639    6.2025    0.0000 H   0  0  0  0  0  0  0  0  0  0  0  0
   -5.2841    3.4619    0.0000 H   0  0  0  0  0  0  0  0  0  0  0  0
    3.5118    4.9040    0.0000 C   0  0  0  0  0  0  0  0  0 10  0  0
    4.0519    2.3627    0.0000 H   0  0  0  0  0  0  0  0  0  0  0  0
    2.9716    7.4453    0.0000 H   0  0  0  0  0  0  0  0  0  0  0  0
    4.9790    5.2159    0.0000 H   0  0  0  0  0  0  0  0  0  0  0  0
   -0.3407  -10.6671    0.0000 H   0  0  0  0  0  0  0  0  0  0  0  0
  1  2  1  0
  2  3  1  0
  4  5  2  0
  6  1  1  0
  1  7  1  0
  1  8  1  0
  9  6  1  0
  6 10  1  0
  4  9  1  0
  9 11  1  0
  9 12  1  0
 10 13  2  0
 10 14  1  0
 14 15  1  0
 16 14  1  0
 14 17  1  1
 15 18  1  0
 15 19  1  0
 20 16  1  0
 16 21  1  0
 16 22  1  0
 18 20  1  0
 18 23  1  0
 18 24  1  0
 20 25  1  0
 20 26  1  1
 25 27  1  0
 28 25  1  0
 27 29  1  0
 27 30  1  0
 27 31  1  0
 32 28  1  0
 28 33  1  0
 28 34  1  0
 29 35  1  0
 29 36  1  0
 29 37  1  0
 35 32  1  0
 32 38  1  0
 32 39  1  0
 35 40  1  0
 40 41  1  0
 42 40  2  0
 41 43  1  0
 41 44  1  0
 45 42  1  0
 42 46  1  0
 43 47  2  0
 48 43  1  0
 44 45  2  0
 45 49  1  0
 47 50  1  0
 47 51  1  0
 52 48  2  0
 48 53  1  0
 49 54  1  0
 49 55  1  0
 49 56  1  0
 50 57  2  0
 50 58  1  0
 57 52  1  0
 52 59  1  0
 57 60  1  0
  4 61  1  0
M  END
>  <SMILES>  (11) 
Cc1cc(N2CCN(C3CNC(C(=O)N(CS)CC=O)C3)CC2)n(-c2ccccc2)n1

>  <Molecular Weight>  (11) 
442.6

>  <Substrate_ID>  (11) 
MOL0059

>  <Substrate>  (11) 


>  <Substrate_SMILES>  (11) 
Cc1cc(N2CCN(C3CNC(C(=O)N4CCSC4)C3)CC2)n(-c2ccccc2)n1

>  <Reaction>  (11) 
S-dealkylation

>  <Score>  (11) 
0.0704

>  <Reaction_Score>  (11) 
0.0318

>  <Bond_Score>  (11) 
0.1559

>  <Rank>  (11) 
9

>  <Subtype>  (11) 
3A4

>  <Subtype_Scores>  (11) 
[3A4] SOM_score: 0.1559, Reaction_score: 0.0318, Score: 0.0704


$$$$

     RDKit          2D

 61 65  0  0  0  0  0  0  0  0999 V2000
    2.1595   -1.8121    0.0000 C   0  0  0  0  0  0  0  0  0 29  0  0
    0.7500   -1.2990    0.0000 N   0  0  0  0  0  4  0  0  0  7  0  0
    1.5000    0.0000    0.0000 C   0  0  0  0  0  0  0  0  0 23  0  0
   -0.7500   -1.2990    0.0000 C   0  0  0  0  0  0  0  0  0 24  0  0
    0.5169   -2.0614    0.0000 O   0  0  0  0  0  1  0  0  0 31  0  0
    3.6449   -2.0208    0.0000 C   0  0  0  0  0  0  0  0  0 17  0  0
    1.5020   -3.1603    0.0000 C   0  0  0  0  0  0  0  0  0 18  0  0
    2.6971   -0.4117    0.0000 H   0  0  0  0  0  0  0  0  0  0  0  0
    3.9054   -3.4980    0.0000 N   0  0  0  0  0  0  0  0  0  4  0  0
    3.6973   -0.5217    0.0000 H   0  0  0  0  0  0  0  0  0  0  0  0
    5.1413   -1.9162    0.0000 H   0  0  0  0  0  0  0  0  0  0  0  0
    2.5810   -4.2022    0.0000 C   0  0  0  0  0  0  0  0  0 30  0  0
    0.4413   -4.2209    0.0000 H   0  0  0  0  0  0  0  0  0  0  0  0
    0.6596   -2.8866    0.0000 H   0  0  0  0  0  0  0  0  0  0  0  0
    5.2536   -4.1556    0.0000 H   0  0  0  0  0  0  0  0  0  0  0  0
    1.4319   -5.1664    0.0000 C   0  0  0  0  0  0  0  0  0 25  0  0
    3.5651   -5.3343    0.0000 H   0  0  0  0  0  0  0  0  0  0  0  0
    1.6924   -6.6436    0.0000 N   0  0  0  0  0  0  0  0  0  5  0  0
   -0.0296   -4.8290    0.0000 O   0  0  0  0  0  0  0  0  0  2  0  0
    3.0406   -7.3012    0.0000 C   0  0  0  0  0  0  0  0  0 19  0  0
    0.6504   -7.7226    0.0000 C   0  0  0  0  0  0  0  0  0 20  0  0
    2.8318   -8.7866    0.0000 C   0  0  0  0  0  0  0  0  0 16  0  0
    3.7216   -5.9647    0.0000 H   0  0  0  0  0  0  0  0  0  0  0  0
    4.4960   -7.6641    0.0000 H   0  0  0  0  0  0  0  0  0  0  0  0
    1.3546   -9.0471    0.0000 S   0  0  0  0  0  0  0  0  0  1  0  0
   -0.5931   -8.5614    0.0000 H   0  0  0  0  0  0  0  0  0  0  0  0
   -0.3138   -6.5736    0.0000 H   0  0  0  0  0  0  0  0  0  0  0  0
    4.3309   -8.8389    0.0000 H   0  0  0  0  0  0  0  0  0  0  0  0
    2.9365  -10.2829    0.0000 H   0  0  0  0  0  0  0  0  0  0  0  0
    0.7500    1.2990    0.0000 C   0  0  0  0  0  0  0  0  0 21  0  0
    2.6491    0.9642    0.0000 H   0  0  0  0  0  0  0  0  0  0  0  0
    2.7580   -0.8169    0.0000 H   0  0  0  0  0  0  0  0  0  0  0  0
   -0.7500    1.2990    0.0000 N   0  0  0  0  0  0  0  0  0  6  0  0
    0.4895    2.7762    0.0000 H   0  0  0  0  0  0  0  0  0  0  0  0
    2.1595    1.8121    0.0000 H   0  0  0  0  0  0  0  0  0  0  0  0
   -1.5000    2.5981    0.0000 C   0  0  0  0  0  0  0  0  0 28  0  0
   -1.5000    0.0000    0.0000 C   0  0  0  0  0  0  0  0  0 22  0  0
   -0.8899    3.9684    0.0000 N   0  0  0  0  0  0  0  0  0  8  0  0
   -2.9918    2.7549    0.0000 C   0  0  0  0  0  0  0  0  0 15  0  0
   -2.6491   -0.9642    0.0000 H   0  0  0  0  0  0  0  0  0  0  0  0
   -2.6491    0.9642    0.0000 H   0  0  0  0  0  0  0  0  0  0  0  0
    0.5773    4.2803    0.0000 C   0  0  0  0  0  0  0  0  0 26  0  0
   -2.0046    4.9721    0.0000 N   0  0  0  0  0  0  0  0  0  3  0  0
   -3.3037    4.2221    0.0000 C   0  0  0  0  0  0  0  0  0 27  0  0
   -3.9955    1.6402    0.0000 H   0  0  0  0  0  0  0  0  0  0  0  0
    1.5810    3.1655    0.0000 C   0  0  0  0  0  0  0  0  0 13  0  0
    1.0409    5.7068    0.0000 C   0  0  0  0  0  0  0  0  0 14  0  0
   -4.6740    4.8322    0.0000 C   0  0  0  0  0  0  0  0  0  9  0  0
    3.0482    3.4774    0.0000 C   0  0  0  0  0  0  0  0  0 11  0  0
    1.4765    1.6692    0.0000 H   0  0  0  0  0  0  0  0  0  0  0  0
    2.5081    6.0187    0.0000 C   0  0  0  0  0  0  0  0  0 12  0  0
    0.0372    6.8216    0.0000 H   0  0  0  0  0  0  0  0  0  0  0  0
   -4.0639    6.2025    0.0000 H   0  0  0  0  0  0  0  0  0  0  0  0
   -5.2841    3.4619    0.0000 H   0  0  0  0  0  0  0  0  0  0  0  0
   -6.0443    5.4423    0.0000 H   0  0  0  0  0  0  0  0  0  0  0  0
    3.5118    4.9040    0.0000 C   0  0  0  0  0  0  0  0  0 10  0  0
    4.0519    2.3627    0.0000 H   0  0  0  0  0  0  0  0  0  0  0  0
    2.9716    7.4453    0.0000 H   0  0  0  0  0  0  0  0  0  0  0  0
    4.9790    5.2159    0.0000 H   0  0  0  0  0  0  0  0  0  0  0  0
   -0.6715   -2.7970    0.0000 H   0  0  0  0  0  0  0  0  0  0  0  0
   -2.1595   -1.8121    0.0000 H   0  0  0  0  0  0  0  0  0  0  0  0
  1  2  1  0
  2  3  1  0
  2  4  1  0
  2  5  1  0
  6  1  1  0
  1  7  1  0
  1  8  1  1
  9  6  1  0
  6 10  1  0
  6 11  1  0
  7 12  1  0
  7 13  1  0
  7 14  1  0
 12  9  1  0
  9 15  1  0
 16 12  1  0
 12 17  1  1
 18 16  1  0
 16 19  2  0
 20 18  1  0
 18 21  1  0
 22 20  1  0
 20 23  1  0
 20 24  1  0
 21 25  1  0
 21 26  1  0
 21 27  1  0
 25 22  1  0
 22 28  1  0
 22 29  1  0
  3 30  1  0
  3 31  1  0
  3 32  1  0
 30 33  1  0
 30 34  1  0
 30 35  1  0
 33 36  1  0
 33 37  1  0
 36 38  1  0
 39 36  2  0
 37  4  1  0
 37 40  1  0
 37 41  1  0
 38 42  1  0
 38 43  1  0
 44 39  1  0
 39 45  1  0
 42 46  2  0
 47 42  1  0
 43 44  2  0
 44 48  1  0
 46 49  1  0
 46 50  1  0
 51 47  2  0
 47 52  1  0
 48 53  1  0
 48 54  1  0
 48 55  1  0
 49 56  2  0
 49 57  1  0
 56 51  1  0
 51 58  1  0
 56 59  1  0
  4 60  1  0
  4 61  1  0
M  CHG  2   2   1   5  -1
M  END
>  <SMILES>  (12) 
Cc1cc(N2CC[N+]([O-])(C3CNC(C(=O)N4CCSC4)C3)CC2)n(-c2ccccc2)n1

>  <Molecular Weight>  (12) 
442.6

>  <Substrate_ID>  (12) 
MOL0059

>  <Substrate>  (12) 


>  <Substrate_SMILES>  (12) 
Cc1cc(N2CCN(C3CNC(C(=O)N4CCSC4)C3)CC2)n(-c2ccccc2)n1

>  <Reaction>  (12) 
N-oxidation_(tertiary_N),N-oxidation

>  <Score>  (12) 
0.0513

>  <Reaction_Score>  (12) 
0.0074

>  <Bond_Score>  (12) 
0.3574

>  <Rank>  (12) 
10

>  <Subtype>  (12) 
3A4

>  <Subtype_Scores>  (12) 
[3A4] SOM_score: 0.3574, Reaction_score: 0.0074, Score: 0.0513


$$$$

     RDKit          2D

 61 65  0  0  0  0  0  0  0  0999 V2000
    3.2808   -7.1137    0.0000 N   0  0  0  0  0  4  0  0  0  5  0  0
    4.7480   -6.8019    0.0000 O   0  0  0  0  0  1  0  0  0 31  0  0
    3.7443   -8.5403    0.0000 C   0  0  0  0  0  0  0  0  0 19  0  0
    3.1240   -5.6219    0.0000 C   0  0  0  0  0  0  0  0  0 25  0  0
    1.7808   -7.1137    0.0000 C   0  0  0  0  0  0  0  0  0 20  0  0
    4.4360   -4.8948    0.0000 O   0  0  0  0  0  0  0  0  0  2  0  0
    1.7537   -5.0118    0.0000 C   0  0  0  0  0  0  0  0  0 30  0  0
    1.3173   -8.5403    0.0000 S   0  0  0  0  0  0  0  0  0  1  0  0
    0.3136   -6.8019    0.0000 H   0  0  0  0  0  0  0  0  0  0  0  0
    1.6698   -6.3243    0.0000 H   0  0  0  0  0  0  0  0  0  0  0  0
    0.2865   -4.7000    0.0000 N   0  0  0  0  0  0  0  0  0  4  0  0
    2.5037   -3.7128    0.0000 C   0  0  0  0  0  0  0  0  0 18  0  0
    1.4496   -5.9478    0.0000 H   0  0  0  0  0  0  0  0  0  0  0  0
    2.5308   -9.4220    0.0000 C   0  0  0  0  0  0  0  0  0 16  0  0
    0.1297   -3.2082    0.0000 C   0  0  0  0  0  0  0  0  0 17  0  0
   -0.8282   -5.7037    0.0000 H   0  0  0  0  0  0  0  0  0  0  0  0
    1.5000   -2.5981    0.0000 C   0  0  0  0  0  0  0  0  0 29  0  0
    3.5074   -2.5981    0.0000 H   0  0  0  0  0  0  0  0  0  0  0  0
    3.8156   -4.4400    0.0000 H   0  0  0  0  0  0  0  0  0  0  0  0
    3.5345  -10.5367    0.0000 H   0  0  0  0  0  0  0  0  0  0  0  0
    1.5271  -10.5367    0.0000 H   0  0  0  0  0  0  0  0  0  0  0  0
   -1.3375   -3.5200    0.0000 H   0  0  0  0  0  0  0  0  0  0  0  0
   -0.6653   -1.9362    0.0000 H   0  0  0  0  0  0  0  0  0  0  0  0
    0.7500   -1.2990    0.0000 N   0  0  0  0  0  0  0  0  0  7  0  0
    2.8119   -1.8709    0.0000 H   0  0  0  0  0  0  0  0  0  0  0  0
    1.5000    0.0000    0.0000 C   0  0  0  0  0  0  0  0  0 23  0  0
   -0.7500   -1.2990    0.0000 C   0  0  0  0  0  0  0  0  0 24  0  0
    0.7500    1.2990    0.0000 C   0  0  0  0  0  0  0  0  0 21  0  0
    2.6491    0.9642    0.0000 H   0  0  0  0  0  0  0  0  0  0  0  0
    2.7580   -0.8169    0.0000 H   0  0  0  0  0  0  0  0  0  0  0  0
   -1.5000    0.0000    0.0000 C   0  0  0  0  0  0  0  0  0 22  0  0
   -0.8547   -2.7954    0.0000 H   0  0  0  0  0  0  0  0  0  0  0  0
   -2.1595   -1.8121    0.0000 H   0  0  0  0  0  0  0  0  0  0  0  0
   -0.7500    1.2990    0.0000 N   0  0  0  0  0  0  0  0  0  6  0  0
    0.4895    2.7762    0.0000 H   0  0  0  0  0  0  0  0  0  0  0  0
    2.1595    1.8121    0.0000 H   0  0  0  0  0  0  0  0  0  0  0  0
   -2.6491   -0.9642    0.0000 H   0  0  0  0  0  0  0  0  0  0  0  0
   -2.6491    0.9642    0.0000 H   0  0  0  0  0  0  0  0  0  0  0  0
   -1.5000    2.5981    0.0000 C   0  0  0  0  0  0  0  0  0 28  0  0
   -0.8899    3.9684    0.0000 N   0  0  0  0  0  0  0  0  0  8  0  0
   -2.9918    2.7549    0.0000 C   0  0  0  0  0  0  0  0  0 15  0  0
    0.5773    4.2803    0.0000 C   0  0  0  0  0  0  0  0  0 26  0  0
   -2.0046    4.9721    0.0000 N   0  0  0  0  0  0  0  0  0  3  0  0
   -3.3037    4.2221    0.0000 C   0  0  0  0  0  0  0  0  0 27  0  0
   -3.9955    1.6402    0.0000 H   0  0  0  0  0  0  0  0  0  0  0  0
    1.5810    3.1655    0.0000 C   0  0  0  0  0  0  0  0  0 13  0  0
    1.0409    5.7068    0.0000 C   0  0  0  0  0  0  0  0  0 14  0  0
   -4.6740    4.8322    0.0000 C   0  0  0  0  0  0  0  0  0  9  0  0
    3.0482    3.4774    0.0000 C   0  0  0  0  0  0  0  0  0 11  0  0
    1.4765    1.6692    0.0000 H   0  0  0  0  0  0  0  0  0  0  0  0
    2.5081    6.0187    0.0000 C   0  0  0  0  0  0  0  0  0 12  0  0
    0.0372    6.8216    0.0000 H   0  0  0  0  0  0  0  0  0  0  0  0
   -6.0443    5.4423    0.0000 H   0  0  0  0  0  0  0  0  0  0  0  0
   -4.0639    6.2025    0.0000 H   0  0  0  0  0  0  0  0  0  0  0  0
   -5.2841    3.4619    0.0000 H   0  0  0  0  0  0  0  0  0  0  0  0
    3.5118    4.9040    0.0000 C   0  0  0  0  0  0  0  0  0 10  0  0
    4.0519    2.3627    0.0000 H   0  0  0  0  0  0  0  0  0  0  0  0
    2.9716    7.4453    0.0000 H   0  0  0  0  0  0  0  0  0  0  0  0
    4.9790    5.2159    0.0000 H   0  0  0  0  0  0  0  0  0  0  0  0
    5.1147   -7.9302    0.0000 H   0  0  0  0  0  0  0  0  0  0  0  0
    4.4943   -9.8393    0.0000 H   0  0  0  0  0  0  0  0  0  0  0  0
  1  2  1  0
  1  3  1  0
  1  4  1  0
  1  5  1  0
  4  6  2  0
  4  7  1  0
  5  8  1  0
  5  9  1  0
  5 10  1  0
  7 11  1  0
 12  7  1  0
  7 13  1  6
  8 14  1  0
 11 15  1  0
 11 16  1  0
 17 12  1  0
 12 18  1  0
 12 19  1  0
 14  3  1  0
 14 20  1  0
 14 21  1  0
 15 17  1  0
 15 22  1  0
 15 23  1  0
 17 24  1  0
 17 25  1  6
 24 26  1  0
 27 24  1  0
 26 28  1  0
 26 29  1  0
 26 30  1  0
 31 27  1  0
 27 32  1  0
 27 33  1  0
 28 34  1  0
 28 35  1  0
 28 36  1  0
 34 31  1  0
 31 37  1  0
 31 38  1  0
 34 39  1  0
 39 40  1  0
 41 39  2  0
 40 42  1  0
 40 43  1  0
 44 41  1  0
 41 45  1  0
 42 46  2  0
 47 42  1  0
 43 44  2  0
 44 48  1  0
 46 49  1  0
 46 50  1  0
 51 47  2  0
 47 52  1  0
 48 53  1  0
 48 54  1  0
 48 55  1  0
 49 56  2  0
 49 57  1  0
 56 51  1  0
 51 58  1  0
 56 59  1  0
  3 60  1  0
  3 61  1  0
M  CHG  2   1   1   2  -1
M  END
>  <SMILES>  (13) 
Cc1cc(N2CCN(C3CNC(C(=O)[N+]4([O-])CCSC4)C3)CC2)n(-c2ccccc2)n1

>  <Molecular Weight>  (13) 
442.6

>  <Substrate_ID>  (13) 
MOL0059

>  <Substrate>  (13) 


>  <Substrate_SMILES>  (13) 
Cc1cc(N2CCN(C3CNC(C(=O)N4CCSC4)C3)CC2)n(-c2ccccc2)n1

>  <Reaction>  (13) 
N-oxidation

>  <Score>  (13) 
0.0484

>  <Reaction_Score>  (13) 
0.012

>  <Bond_Score>  (13) 
0.1945

>  <Rank>  (13) 
11

>  <Subtype>  (13) 
3A4

>  <Subtype_Scores>  (13) 
[3A4] SOM_score: 0.1945, Reaction_score: 0.0120, Score: 0.0484


$$$$
