
     RDKit          2D

 54 56  0  0  0  0  0  0  0  0999 V2000
    1.5000    0.0000    0.0000 C   0  0  0  0  0  0  0  0  0 21  0  0
    3.0000    0.0000    0.0000 O   0  0  0  0  0  0  0  0  0  6  0  0
    0.7500   -1.2990    0.0000 C   0  0  0  0  0  0  0  0  0 13  0  0
    0.7500    1.2990    0.0000 C   0  0  0  0  0  0  0  0  0 14  0  0
   -0.7500   -1.2990    0.0000 C   0  0  0  0  0  0  0  0  0 11  0  0
    1.5000   -2.5981    0.0000 H   0  0  0  0  0  0  0  0  0  0  0  0
   -0.7500    1.2990    0.0000 C   0  0  0  0  0  0  0  0  0 12  0  0
    1.5000    2.5981    0.0000 H   0  0  0  0  0  0  0  0  0  0  0  0
   -1.5000    0.0000    0.0000 C   0  0  0  0  0  0  0  0  0 20  0  0
   -1.5000   -2.5981    0.0000 H   0  0  0  0  0  0  0  0  0  0  0  0
   -1.5000    2.5981    0.0000 H   0  0  0  0  0  0  0  0  0  0  0  0
   -3.0000    0.0000    0.0000 C   0  0  0  0  0  0  0  0  0 18  0  0
   -4.5000    0.0000    0.0000 C   0  0  0  0  0  0  0  0  0 23  0  0
   -3.0000    1.5000    0.0000 H   0  0  0  0  0  0  0  0  0  0  0  0
   -2.8519   -1.2059    0.0000 H   0  0  0  0  0  0  0  0  0  0  0  0
   -5.2500    1.2990    0.0000 C   0  0  0  0  0  0  0  0  0 16  0  0
   -5.2500   -1.2990    0.0000 C   0  0  0  0  0  0  0  0  0 22  0  0
   -6.7500    1.2990    0.0000 C   0  0  0  0  0  0  0  0  0 25  0  0
   -4.5000    2.5981    0.0000 H   0  0  0  0  0  0  0  0  0  0  0  0
   -4.5000   -2.5981    0.0000 C   0  0  0  0  0  0  0  0  0 10  0  0
   -6.7500   -1.2990    0.0000 C   0  0  0  0  0  0  0  0  0 15  0  0
   -7.5000    2.5981    0.0000 C   0  0  0  0  0  0  0  0  0 30  0  0
   -7.5000    0.0000    0.0000 C   0  0  0  0  0  0  0  0  0 24  0  0
   -3.7500   -3.8971    0.0000 H   0  0  0  0  0  0  0  0  0  0  0  0
   -5.7990   -3.3481    0.0000 H   0  0  0  0  0  0  0  0  0  0  0  0
   -3.3816   -2.1234    0.0000 H   0  0  0  0  0  0  0  0  0  0  0  0
   -7.5000   -2.5981    0.0000 H   0  0  0  0  0  0  0  0  0  0  0  0
   -8.6491    1.6339    0.0000 C   0  0  0  0  0  0  0  0  0 27  0  0
   -7.7605    4.0753    0.0000 S   0  0  0  0  0  0  0  0  0  1  0  0
   -6.0905    3.1111    0.0000 H   0  0  0  0  0  0  0  0  0  0  0  0
   -9.0000    0.0000    0.0000 O   0  0  0  0  0  0  0  0  0  7  0  0
  -10.0586    2.1469    0.0000 C   0  0  0  0  0  0  0  0  0 26  0  0
   -9.3991    0.3349    0.0000 O   0  0  0  0  0  0  0  0  0  4  0  0
   -7.7675    0.4203    0.0000 H   0  0  0  0  0  0  0  0  0  0  0  0
   -9.1700    4.5883    0.0000 C   0  0  0  0  0  0  0  0  0 29  0  0
   -9.7500   -1.2990    0.0000 C   0  0  0  0  0  0  0  0  0  9  0  0
  -10.3191    3.6241    0.0000 C   0  0  0  0  0  0  0  0  0 28  0  0
  -11.5586    2.1469    0.0000 O   0  0  0  0  0  0  0  0  0  3  0  0
  -10.4972    0.7125    0.0000 H   0  0  0  0  0  0  0  0  0  0  0  0
  -10.8991    0.3349    0.0000 H   0  0  0  0  0  0  0  0  0  0  0  0
   -8.4200    5.8874    0.0000 C   0  0  0  0  0  0  0  0  0 19  0  0
  -10.3191    5.5525    0.0000 H   0  0  0  0  0  0  0  0  0  0  0  0
  -10.5000   -2.5981    0.0000 H   0  0  0  0  0  0  0  0  0  0  0  0
  -11.1308   -0.7130    0.0000 H   0  0  0  0  0  0  0  0  0  0  0  0
   -8.4510   -2.0490    0.0000 H   0  0  0  0  0  0  0  0  0  0  0  0
  -11.0691    4.9232    0.0000 O   0  0  0  0  0  0  0  0  0  5  0  0
  -11.7806    3.2867    0.0000 H   0  0  0  0  0  0  0  0  0  0  0  0
  -12.4614    3.3449    0.0000 H   0  0  0  0  0  0  0  0  0  0  0  0
   -7.6700    7.1864    0.0000 O   0  0  0  0  0  0  0  0  0  2  0  0
   -9.7190    6.6374    0.0000 H   0  0  0  0  0  0  0  0  0  0  0  0
   -7.1210    5.1374    0.0000 H   0  0  0  0  0  0  0  0  0  0  0  0
  -12.5691    4.9232    0.0000 H   0  0  0  0  0  0  0  0  0  0  0  0
   -6.1700    7.1864    0.0000 H   0  0  0  0  0  0  0  0  0  0  0  0
    3.7500   -1.2990    0.0000 H   0  0  0  0  0  0  0  0  0  0  0  0
  1  2  1  0
  3  1  2  0
  1  4  1  0
  5  3  1  0
  3  6  1  0
  4  7  2  0
  4  8  1  0
  9  5  2  0
  5 10  1  0
  7  9  1  0
  7 11  1  0
 12  9  1  0
 13 12  1  0
 12 14  1  0
 12 15  1  0
 16 13  2  0
 13 17  1  0
 18 16  1  0
 16 19  1  0
 17 20  1  0
 17 21  2  0
 22 18  1  0
 23 18  2  0
 20 24  1  0
 20 25  1  0
 20 26  1  0
 21 23  1  0
 21 27  1  0
 28 22  1  0
 22 29  1  0
 22 30  1  6
 23 31  1  0
 32 28  1  0
 28 33  1  0
 28 34  1  1
 29 35  1  0
 31 36  1  0
 37 32  1  0
 32 38  1  0
 32 39  1  6
 33 40  1  0
 35 41  1  0
 35 37  1  0
 35 42  1  6
 36 43  1  0
 36 44  1  0
 36 45  1  0
 37 46  1  0
 37 47  1  1
 38 48  1  0
 41 49  1  0
 41 50  1  0
 41 51  1  0
 46 52  1  0
 49 53  1  0
  2 54  1  0
M  END
>  <SMILES>  (1) 
COc1cc(C)c(Cc2ccc(O)cc2)cc1C1SC(CO)C(O)C(O)C1O

>  <Molecular Weight>  (1) 
406.5

>  <Substrate_ID>  (1) 
MOL0045

>  <Substrate>  (1) 


>  <Substrate_SMILES>  (1) 
CCOc1ccc(Cc2cc(C3SC(CO)C(O)C(O)C3O)c(OC)cc2C)cc1

>  <Reaction>  (1) 
O-dealkylation_(aromatic)

>  <Score>  (1) 
0.415

>  <Reaction_Score>  (1) 
0.4364

>  <Bond_Score>  (1) 
0.3947

>  <Rank>  (1) 
1

>  <Subtype>  (1) 
2C8, 2C9, 2C19, 2D6, 3A4

>  <Subtype_Scores>  (1) 
[2C8] SOM_score: 0.1917, Reaction_score: 0.4364, Score: 0.2892
[2C9] SOM_score: 0.1649, Reaction_score: 0.4364, Score: 0.2683
[2C19] SOM_score: 0.1555, Reaction_score: 0.4364, Score: 0.2605
[2D6] SOM_score: 0.2082, Reaction_score: 0.4364, Score: 0.3014
[3A4] SOM_score: 0.3947, Reaction_score: 0.4364, Score: 0.4150


$$$$

     RDKit          2D

 57 59  0  0  0  0  0  0  0  0999 V2000
    1.5000    0.0000    0.0000 C   0  0  0  0  0  0  0  0  0 24  0  0
    3.0000    0.0000    0.0000 O   0  0  0  0  0  0  0  0  0  7  0  0
    0.7500   -1.2990    0.0000 C   0  0  0  0  0  0  0  0  0 15  0  0
    0.7500    1.2990    0.0000 C   0  0  0  0  0  0  0  0  0 25  0  0
   -0.7500   -1.2990    0.0000 C   0  0  0  0  0  0  0  0  0 22  0  0
    1.5000   -2.5981    0.0000 H   0  0  0  0  0  0  0  0  0  0  0  0
    1.5000    2.5981    0.0000 C   0  0  0  0  0  0  0  0  0 30  0  0
   -0.7500    1.2990    0.0000 C   0  0  0  0  0  0  0  0  0 16  0  0
   -1.5000    0.0000    0.0000 C   0  0  0  0  0  0  0  0  0 23  0  0
   -1.5000   -2.5981    0.0000 C   0  0  0  0  0  0  0  0  0 10  0  0
    2.6491    1.6339    0.0000 C   0  0  0  0  0  0  0  0  0 27  0  0
    1.7605    4.0753    0.0000 S   0  0  0  0  0  0  0  0  0  1  0  0
    0.0905    3.1111    0.0000 H   0  0  0  0  0  0  0  0  0  0  0  0
   -1.5000    2.5981    0.0000 H   0  0  0  0  0  0  0  0  0  0  0  0
   -3.0000    0.0000    0.0000 C   0  0  0  0  0  0  0  0  0 18  0  0
   -2.2500   -3.8971    0.0000 H   0  0  0  0  0  0  0  0  0  0  0  0
   -2.8808   -2.0120    0.0000 H   0  0  0  0  0  0  0  0  0  0  0  0
   -0.2010   -3.3481    0.0000 H   0  0  0  0  0  0  0  0  0  0  0  0
    4.0586    2.1469    0.0000 C   0  0  0  0  0  0  0  0  0 26  0  0
    3.3991    0.3349    0.0000 O   0  0  0  0  0  0  0  0  0  4  0  0
    1.7675    0.4203    0.0000 H   0  0  0  0  0  0  0  0  0  0  0  0
    3.1700    4.5883    0.0000 C   0  0  0  0  0  0  0  0  0 29  0  0
   -4.5000    0.0000    0.0000 C   0  0  0  0  0  0  0  0  0 20  0  0
   -3.0000    1.5000    0.0000 H   0  0  0  0  0  0  0  0  0  0  0  0
   -3.1828   -1.4888    0.0000 H   0  0  0  0  0  0  0  0  0  0  0  0
    4.3191    3.6241    0.0000 C   0  0  0  0  0  0  0  0  0 28  0  0
    5.5586    2.1469    0.0000 O   0  0  0  0  0  0  0  0  0  3  0  0
    4.4972    0.7125    0.0000 H   0  0  0  0  0  0  0  0  0  0  0  0
    4.8879    0.1520    0.0000 H   0  0  0  0  0  0  0  0  0  0  0  0
    2.4200    5.8874    0.0000 C   0  0  0  0  0  0  0  0  0 19  0  0
    4.3191    5.5525    0.0000 H   0  0  0  0  0  0  0  0  0  0  0  0
   -5.2500    1.2990    0.0000 C   0  0  0  0  0  0  0  0  0 11  0  0
   -5.2500   -1.2990    0.0000 C   0  0  0  0  0  0  0  0  0 12  0  0
    5.0691    4.9232    0.0000 O   0  0  0  0  0  0  0  0  0  5  0  0
    5.7806    3.2867    0.0000 H   0  0  0  0  0  0  0  0  0  0  0  0
    6.4614    3.3449    0.0000 H   0  0  0  0  0  0  0  0  0  0  0  0
    1.6700    7.1864    0.0000 O   0  0  0  0  0  0  0  0  0  2  0  0
    3.7190    6.6374    0.0000 H   0  0  0  0  0  0  0  0  0  0  0  0
    1.1210    5.1374    0.0000 H   0  0  0  0  0  0  0  0  0  0  0  0
   -6.7500    1.2990    0.0000 C   0  0  0  0  0  0  0  0  0 13  0  0
   -4.5000    2.5981    0.0000 H   0  0  0  0  0  0  0  0  0  0  0  0
   -6.7500   -1.2990    0.0000 C   0  0  0  0  0  0  0  0  0 14  0  0
   -4.5000   -2.5981    0.0000 H   0  0  0  0  0  0  0  0  0  0  0  0
    6.5691    4.9232    0.0000 H   0  0  0  0  0  0  0  0  0  0  0  0
    0.1700    7.1864    0.0000 H   0  0  0  0  0  0  0  0  0  0  0  0
   -7.5000    0.0000    0.0000 C   0  0  0  0  0  0  0  0  0 21  0  0
   -7.5000    2.5981    0.0000 H   0  0  0  0  0  0  0  0  0  0  0  0
   -7.5000   -2.5981    0.0000 H   0  0  0  0  0  0  0  0  0  0  0  0
   -9.0000    0.0000    0.0000 O   0  0  0  0  0  0  0  0  0  6  0  0
   -9.7500    1.2990    0.0000 C   0  0  0  0  0  0  0  0  0 17  0  0
  -10.5000    2.5981    0.0000 C   0  0  0  0  0  0  0  0  0  8  0  0
   -8.4510    2.0490    0.0000 H   0  0  0  0  0  0  0  0  0  0  0  0
  -11.0490    0.5490    0.0000 H   0  0  0  0  0  0  0  0  0  0  0  0
  -11.2500    3.8971    0.0000 H   0  0  0  0  0  0  0  0  0  0  0  0
   -9.2010    3.3481    0.0000 H   0  0  0  0  0  0  0  0  0  0  0  0
  -11.7990    1.8481    0.0000 H   0  0  0  0  0  0  0  0  0  0  0  0
    3.7500   -1.2990    0.0000 H   0  0  0  0  0  0  0  0  0  0  0  0
  1  2  1  0
  3  1  2  0
  1  4  1  0
  5  3  1  0
  3  6  1  0
  7  4  1  0
  4  8  2  0
  9  5  2  0
  5 10  1  0
 11  7  1  0
  7 12  1  0
  7 13  1  1
  8  9  1  0
  8 14  1  0
  9 15  1  0
 10 16  1  0
 10 17  1  0
 10 18  1  0
 19 11  1  0
 11 20  1  0
 11 21  1  6
 12 22  1  0
 15 23  1  0
 15 24  1  0
 15 25  1  0
 26 19  1  0
 19 27  1  0
 19 28  1  1
 20 29  1  0
 22 30  1  0
 22 26  1  0
 22 31  1  1
 23 32  2  0
 33 23  1  0
 26 34  1  0
 26 35  1  6
 27 36  1  0
 30 37  1  0
 30 38  1  0
 30 39  1  0
 32 40  1  0
 32 41  1  0
 42 33  2  0
 33 43  1  0
 34 44  1  0
 37 45  1  0
 40 46  2  0
 40 47  1  0
 46 42  1  0
 42 48  1  0
 46 49  1  0
 49 50  1  0
 50 51  1  0
 50 52  1  0
 50 53  1  0
 51 54  1  0
 51 55  1  0
 51 56  1  0
  2 57  1  0
M  END
>  <SMILES>  (2) 
CCOc1ccc(Cc2cc(C3SC(CO)C(O)C(O)C3O)c(O)cc2C)cc1

>  <Molecular Weight>  (2) 
420.5

>  <Substrate_ID>  (2) 
MOL0045

>  <Substrate>  (2) 


>  <Substrate_SMILES>  (2) 
CCOc1ccc(Cc2cc(C3SC(CO)C(O)C(O)C3O)c(OC)cc2C)cc1

>  <Reaction>  (2) 
O-demethylation

>  <Score>  (2) 
0.3852

>  <Reaction_Score>  (2) 
0.468

>  <Bond_Score>  (2) 
0.317

>  <Rank>  (2) 
2

>  <Subtype>  (2) 
2C8, 2C9, 2C19, 2D6, 3A4

>  <Subtype_Scores>  (2) 
[2C8] SOM_score: 0.1627, Reaction_score: 0.4680, Score: 0.2760
[2C9] SOM_score: 0.1905, Reaction_score: 0.4680, Score: 0.2985
[2C19] SOM_score: 0.1861, Reaction_score: 0.4680, Score: 0.2951
[2D6] SOM_score: 0.3170, Reaction_score: 0.4680, Score: 0.3852
[3A4] SOM_score: 0.3107, Reaction_score: 0.4680, Score: 0.3813


$$$$

     RDKit          2D

 61 63  0  0  0  0  0  0  0  0999 V2000
    0.7500   -1.2990    0.0000 C   0  0  0  0  0  0  0  0  0 23  0  0
    1.5000   -2.5981    0.0000 C   0  0  0  0  0  0  0  0  0 18  0  0
    2.7990   -1.8481    0.0000 O   0  0  0  0  0  0  0  0  0 31  0  0
    2.2500   -3.8971    0.0000 C   0  0  0  0  0  0  0  0  0 20  0  0
    1.5000    0.0000    0.0000 C   0  0  0  0  0  0  0  0  0 16  0  0
   -0.7500   -1.2990    0.0000 C   0  0  0  0  0  0  0  0  0 22  0  0
    0.7500    1.2990    0.0000 C   0  0  0  0  0  0  0  0  0 25  0  0
    2.6789   -0.2940    0.0000 H   0  0  0  0  0  0  0  0  0  0  0  0
   -1.5000   -2.5981    0.0000 C   0  0  0  0  0  0  0  0  0 10  0  0
   -1.5000    0.0000    0.0000 C   0  0  0  0  0  0  0  0  0 15  0  0
    1.5000    2.5981    0.0000 C   0  0  0  0  0  0  0  0  0 30  0  0
   -0.7500    1.2990    0.0000 C   0  0  0  0  0  0  0  0  0 24  0  0
   -2.2500   -3.8971    0.0000 H   0  0  0  0  0  0  0  0  0  0  0  0
   -2.7990   -1.8481    0.0000 H   0  0  0  0  0  0  0  0  0  0  0  0
   -0.5297   -3.3293    0.0000 H   0  0  0  0  0  0  0  0  0  0  0  0
   -3.0000    0.0000    0.0000 H   0  0  0  0  0  0  0  0  0  0  0  0
    2.6491    1.6339    0.0000 C   0  0  0  0  0  0  0  0  0 27  0  0
    1.7605    4.0753    0.0000 S   0  0  0  0  0  0  0  0  0  1  0  0
    0.0905    3.1111    0.0000 H   0  0  0  0  0  0  0  0  0  0  0  0
   -1.5000    2.5981    0.0000 O   0  0  0  0  0  0  0  0  0  7  0  0
    4.0586    2.1469    0.0000 C   0  0  0  0  0  0  0  0  0 26  0  0
    3.3991    0.3349    0.0000 O   0  0  0  0  0  0  0  0  0  4  0  0
    2.0064    0.7492    0.0000 H   0  0  0  0  0  0  0  0  0  0  0  0
    3.1700    4.5883    0.0000 C   0  0  0  0  0  0  0  0  0 29  0  0
   -3.0000    2.5981    0.0000 C   0  0  0  0  0  0  0  0  0  9  0  0
    4.3191    3.6241    0.0000 C   0  0  0  0  0  0  0  0  0 28  0  0
    5.5586    2.1469    0.0000 O   0  0  0  0  0  0  0  0  0  3  0  0
    4.3464    1.2058    0.0000 H   0  0  0  0  0  0  0  0  0  0  0  0
    4.3759    0.2149    0.0000 H   0  0  0  0  0  0  0  0  0  0  0  0
    2.4200    5.8874    0.0000 C   0  0  0  0  0  0  0  0  0 19  0  0
    4.3191    5.5525    0.0000 H   0  0  0  0  0  0  0  0  0  0  0  0
   -4.5000    2.5981    0.0000 H   0  0  0  0  0  0  0  0  0  0  0  0
   -3.0000    4.0981    0.0000 H   0  0  0  0  0  0  0  0  0  0  0  0
   -3.0000    1.0981    0.0000 H   0  0  0  0  0  0  0  0  0  0  0  0
    5.0691    4.9232    0.0000 O   0  0  0  0  0  0  0  0  0  5  0  0
    5.2780    3.4028    0.0000 H   0  0  0  0  0  0  0  0  0  0  0  0
    6.1509    2.9329    0.0000 H   0  0  0  0  0  0  0  0  0  0  0  0
    1.6700    7.1864    0.0000 O   0  0  0  0  0  0  0  0  0  2  0  0
    3.7190    6.6374    0.0000 H   0  0  0  0  0  0  0  0  0  0  0  0
    1.1210    5.1374    0.0000 H   0  0  0  0  0  0  0  0  0  0  0  0
    6.5691    4.9232    0.0000 H   0  0  0  0  0  0  0  0  0  0  0  0
    0.1700    7.1864    0.0000 H   0  0  0  0  0  0  0  0  0  0  0  0
    0.5297   -3.3293    0.0000 H   0  0  0  0  0  0  0  0  0  0  0  0
    3.7500   -3.8971    0.0000 C   0  0  0  0  0  0  0  0  0 11  0  0
    1.5000   -5.1962    0.0000 C   0  0  0  0  0  0  0  0  0 12  0  0
    4.5000   -5.1962    0.0000 C   0  0  0  0  0  0  0  0  0 13  0  0
    4.6528   -2.6992    0.0000 H   0  0  0  0  0  0  0  0  0  0  0  0
    2.2500   -6.4952    0.0000 C   0  0  0  0  0  0  0  0  0 14  0  0
   -0.0000   -5.1962    0.0000 H   0  0  0  0  0  0  0  0  0  0  0  0
    3.7500   -6.4952    0.0000 C   0  0  0  0  0  0  0  0  0 21  0  0
    6.0000   -5.1962    0.0000 H   0  0  0  0  0  0  0  0  0  0  0  0
    1.5000   -7.7942    0.0000 H   0  0  0  0  0  0  0  0  0  0  0  0
    4.5000   -7.7942    0.0000 O   0  0  0  0  0  0  0  0  0  6  0  0
    6.0000   -7.7942    0.0000 C   0  0  0  0  0  0  0  0  0 17  0  0
    7.5000   -7.7942    0.0000 C   0  0  0  0  0  0  0  0  0  8  0  0
    6.0000   -6.2942    0.0000 H   0  0  0  0  0  0  0  0  0  0  0  0
    6.0000   -9.2942    0.0000 H   0  0  0  0  0  0  0  0  0  0  0  0
    9.0000   -7.7942    0.0000 H   0  0  0  0  0  0  0  0  0  0  0  0
    7.5000   -6.2942    0.0000 H   0  0  0  0  0  0  0  0  0  0  0  0
    7.5000   -9.2942    0.0000 H   0  0  0  0  0  0  0  0  0  0  0  0
    4.1798   -2.4341    0.0000 H   0  0  0  0  0  0  0  0  0  0  0  0
  1  2  1  0
  2  3  1  0
  2  4  1  0
  5  1  2  0
  1  6  1  0
  7  5  1  0
  5  8  1  0
  6  9  1  0
  6 10  2  0
 11  7  1  0
 12  7  2  0
  9 13  1  0
  9 14  1  0
  9 15  1  0
 10 12  1  0
 10 16  1  0
 17 11  1  0
 11 18  1  0
 11 19  1  1
 12 20  1  0
 21 17  1  0
 17 22  1  0
 17 23  1  6
 18 24  1  0
 20 25  1  0
 26 21  1  0
 21 27  1  0
 21 28  1  1
 22 29  1  0
 24 30  1  0
 24 26  1  0
 24 31  1  1
 25 32  1  0
 25 33  1  0
 25 34  1  0
 26 35  1  0
 26 36  1  6
 27 37  1  0
 30 38  1  0
 30 39  1  0
 30 40  1  0
 35 41  1  0
 38 42  1  0
  2 43  1  0
  4 44  2  0
 45  4  1  0
 44 46  1  0
 44 47  1  0
 48 45  2  0
 45 49  1  0
 46 50  2  0
 46 51  1  0
 50 48  1  0
 48 52  1  0
 50 53  1  0
 53 54  1  0
 54 55  1  0
 54 56  1  0
 54 57  1  0
 55 58  1  0
 55 59  1  0
 55 60  1  0
  3 61  1  0
M  END
>  <SMILES>  (3) 
CCOc1ccc(C(O)c2cc(C3SC(CO)C(O)C(O)C3O)c(OC)cc2C)cc1

>  <Molecular Weight>  (3) 
450.6

>  <Substrate_ID>  (3) 
MOL0045

>  <Substrate>  (3) 


>  <Substrate_SMILES>  (3) 
CCOc1ccc(Cc2cc(C3SC(CO)C(O)C(O)C3O)c(OC)cc2C)cc1

>  <Reaction>  (3) 
benzylic_hydroxylation_(c-CH2-CR),aliphatic hydroxylation

>  <Score>  (3) 
0.2298

>  <Reaction_Score>  (3) 
0.222

>  <Bond_Score>  (3) 
0.2378

>  <Rank>  (3) 
3

>  <Subtype>  (3) 
2C8, 3A4

>  <Subtype_Scores>  (3) 
[2C8] SOM_score: 0.0803, Reaction_score: 0.2220, Score: 0.1336
[3A4] SOM_score: 0.2378, Reaction_score: 0.2220, Score: 0.2298


$$$$

     RDKit          2D

 61 63  0  0  0  0  0  0  0  0999 V2000
    1.5000    0.0000    0.0000 C   0  0  0  0  0  0  0  0  0 29  0  0
    0.7500   -1.2990    0.0000 S   0  0  0  0  0  4  0  0  0  1  0  0
    1.1772   -2.3056    0.0000 O   0  0  0  0  0  0  0  0  0 31  0  0
   -0.7500   -1.2990    0.0000 C   0  0  0  0  0  0  0  0  0 30  0  0
    2.6491   -0.9642    0.0000 C   0  0  0  0  0  0  0  0  0 19  0  0
    0.7500    1.2990    0.0000 C   0  0  0  0  0  0  0  0  0 28  0  0
    2.5190    0.6617    0.0000 H   0  0  0  0  0  0  0  0  0  0  0  0
    3.7981   -1.9284    0.0000 O   0  0  0  0  0  0  0  0  0  2  0  0
    3.7461    0.0588    0.0000 H   0  0  0  0  0  0  0  0  0  0  0  0
    2.0535   -1.8813    0.0000 H   0  0  0  0  0  0  0  0  0  0  0  0
    2.1595    1.8121    0.0000 O   0  0  0  0  0  0  0  0  0  5  0  0
   -0.7500    1.2990    0.0000 C   0  0  0  0  0  0  0  0  0 26  0  0
    0.6985    2.2818    0.0000 H   0  0  0  0  0  0  0  0  0  0  0  0
    5.2077   -1.4153    0.0000 H   0  0  0  0  0  0  0  0  0  0  0  0
    3.2516    1.2795    0.0000 H   0  0  0  0  0  0  0  0  0  0  0  0
   -0.4895    2.7762    0.0000 O   0  0  0  0  0  0  0  0  0  3  0  0
   -1.5000    0.0000    0.0000 C   0  0  0  0  0  0  0  0  0 27  0  0
   -2.1595    1.8121    0.0000 H   0  0  0  0  0  0  0  0  0  0  0  0
    0.3873    3.2231    0.0000 H   0  0  0  0  0  0  0  0  0  0  0  0
   -2.6491    0.9642    0.0000 O   0  0  0  0  0  0  0  0  0  4  0  0
   -2.4829   -0.4793    0.0000 H   0  0  0  0  0  0  0  0  0  0  0  0
   -3.9645    0.6605    0.0000 H   0  0  0  0  0  0  0  0  0  0  0  0
   -2.1595   -1.8121    0.0000 C   0  0  0  0  0  0  0  0  0 25  0  0
   -0.4895   -2.7762    0.0000 H   0  0  0  0  0  0  0  0  0  0  0  0
   -3.3086   -0.8479    0.0000 C   0  0  0  0  0  0  0  0  0 16  0  0
   -2.4200   -3.2893    0.0000 C   0  0  0  0  0  0  0  0  0 24  0  0
   -4.7181   -1.3609    0.0000 C   0  0  0  0  0  0  0  0  0 23  0  0
   -3.3849    0.2429    0.0000 H   0  0  0  0  0  0  0  0  0  0  0  0
   -3.8296   -3.8023    0.0000 C   0  0  0  0  0  0  0  0  0 15  0  0
   -1.2709   -4.2535    0.0000 O   0  0  0  0  0  0  0  0  0  7  0  0
   -5.8672   -0.3967    0.0000 C   0  0  0  0  0  0  0  0  0 18  0  0
   -4.9786   -2.8381    0.0000 C   0  0  0  0  0  0  0  0  0 22  0  0
   -4.0900   -5.2795    0.0000 H   0  0  0  0  0  0  0  0  0  0  0  0
   -1.5314   -5.7307    0.0000 C   0  0  0  0  0  0  0  0  0  9  0  0
   -7.0163    0.5674    0.0000 C   0  0  0  0  0  0  0  0  0 20  0  0
   -6.9643   -1.4197    0.0000 H   0  0  0  0  0  0  0  0  0  0  0  0
   -5.0503    0.8613    0.0000 H   0  0  0  0  0  0  0  0  0  0  0  0
   -6.3882   -3.3512    0.0000 C   0  0  0  0  0  0  0  0  0 10  0  0
   -0.0542   -5.9911    0.0000 H   0  0  0  0  0  0  0  0  0  0  0  0
   -3.0086   -5.4702    0.0000 H   0  0  0  0  0  0  0  0  0  0  0  0
   -1.7919   -7.2079    0.0000 H   0  0  0  0  0  0  0  0  0  0  0  0
   -6.7558    2.0447    0.0000 C   0  0  0  0  0  0  0  0  0 11  0  0
   -8.4258    0.0544    0.0000 C   0  0  0  0  0  0  0  0  0 12  0  0
   -7.0692   -2.0147    0.0000 H   0  0  0  0  0  0  0  0  0  0  0  0
   -5.8751   -4.7607    0.0000 H   0  0  0  0  0  0  0  0  0  0  0  0
   -7.7977   -3.8642    0.0000 H   0  0  0  0  0  0  0  0  0  0  0  0
   -7.9049    3.0088    0.0000 C   0  0  0  0  0  0  0  0  0 13  0  0
   -5.3463    2.5577    0.0000 H   0  0  0  0  0  0  0  0  0  0  0  0
   -9.5749    1.0186    0.0000 C   0  0  0  0  0  0  0  0  0 14  0  0
   -8.6863   -1.4228    0.0000 H   0  0  0  0  0  0  0  0  0  0  0  0
   -9.3144    2.4958    0.0000 C   0  0  0  0  0  0  0  0  0 21  0  0
   -7.6444    4.4861    0.0000 H   0  0  0  0  0  0  0  0  0  0  0  0
  -10.9844    0.5056    0.0000 H   0  0  0  0  0  0  0  0  0  0  0  0
  -10.4635    3.4600    0.0000 O   0  0  0  0  0  0  0  0  0  6  0  0
  -10.2030    4.9372    0.0000 C   0  0  0  0  0  0  0  0  0 17  0  0
   -9.9425    6.4144    0.0000 C   0  0  0  0  0  0  0  0  0  8  0  0
  -11.6802    5.1977    0.0000 H   0  0  0  0  0  0  0  0  0  0  0  0
   -8.7258    4.6767    0.0000 H   0  0  0  0  0  0  0  0  0  0  0  0
   -8.4653    6.1539    0.0000 H   0  0  0  0  0  0  0  0  0  0  0  0
  -11.4197    6.6749    0.0000 H   0  0  0  0  0  0  0  0  0  0  0  0
   -9.6821    7.8916    0.0000 H   0  0  0  0  0  0  0  0  0  0  0  0
  1  2  1  0
  2  3  2  0
  2  4  1  0
  1  5  1  0
  1  6  1  0
  1  7  1  6
  5  8  1  0
  5  9  1  0
  5 10  1  0
  6 11  1  0
  6 12  1  0
  6 13  1  1
  8 14  1  0
 11 15  1  0
 12 16  1  0
 12 17  1  0
 12 18  1  6
 16 19  1  0
 17 20  1  0
 17  4  1  0
 17 21  1  1
 20 22  1  0
  4 23  1  0
  4 24  1  6
 23 25  2  0
 26 23  1  0
 25 27  1  0
 25 28  1  0
 29 26  2  0
 26 30  1  0
 27 31  1  0
 27 32  2  0
 32 29  1  0
 29 33  1  0
 30 34  1  0
 31 35  1  0
 31 36  1  0
 31 37  1  0
 32 38  1  0
 34 39  1  0
 34 40  1  0
 34 41  1  0
 35 42  2  0
 43 35  1  0
 38 44  1  0
 38 45  1  0
 38 46  1  0
 42 47  1  0
 42 48  1  0
 49 43  2  0
 43 50  1  0
 47 51  2  0
 47 52  1  0
 51 49  1  0
 49 53  1  0
 51 54  1  0
 54 55  1  0
 55 56  1  0
 55 57  1  0
 55 58  1  0
 56 59  1  0
 56 60  1  0
 56 61  1  0
M  END
>  <SMILES>  (4) 
CCOc1ccc(Cc2cc(C3C(O)C(O)C(O)C(CO)S3=O)c(OC)cc2C)cc1

>  <Molecular Weight>  (4) 
450.6

>  <Substrate_ID>  (4) 
MOL0045

>  <Substrate>  (4) 


>  <Substrate_SMILES>  (4) 
CCOc1ccc(Cc2cc(C3SC(CO)C(O)C(O)C3O)c(OC)cc2C)cc1

>  <Reaction>  (4) 
sulfide_oxidation_(C-S-C),S-oxidation

>  <Score>  (4) 
0.1655

>  <Reaction_Score>  (4) 
0.1044

>  <Bond_Score>  (4) 
0.2624

>  <Rank>  (4) 
4

>  <Subtype>  (4) 
2C9, 2D6, 3A4

>  <Subtype_Scores>  (4) 
[2C9] SOM_score: 0.1707, Reaction_score: 0.1044, Score: 0.1335
[2D6] SOM_score: 0.1403, Reaction_score: 0.1044, Score: 0.1210
[3A4] SOM_score: 0.2624, Reaction_score: 0.1044, Score: 0.1655


$$$$
