
     RDKit          2D

 37 38  0  0  0  0  0  0  0  0999 V2000
    1.0365   -5.9990    0.0000 C   0  0  0  0  0  0  0  0  0  9  0  0
    2.5037   -6.3109    0.0000 C   0  0  0  0  0  0  0  0  0 10  0  0
    3.8740   -6.9210    0.0000 O   0  0  0  0  0  0  0  0  0 19  0  0
    3.2537   -5.0118    0.0000 C   0  0  0  0  0  0  0  0  0 13  0  0
    0.8797   -4.5072    0.0000 C   0  0  0  0  0  0  0  0  0 11  0  0
    0.8797   -7.4908    0.0000 H   0  0  0  0  0  0  0  0  0  0  0  0
   -0.4635   -5.9990    0.0000 H   0  0  0  0  0  0  0  0  0  0  0  0
    2.2500   -3.8971    0.0000 C   0  0  0  0  0  0  0  0  0 17  0  0
   -0.5875   -4.8191    0.0000 H   0  0  0  0  0  0  0  0  0  0  0  0
    0.5428   -3.7848    0.0000 H   0  0  0  0  0  0  0  0  0  0  0  0
    1.5000   -2.5981    0.0000 C   0  0  0  0  0  0  0  0  0 12  0  0
    3.4635   -3.0154    0.0000 H   0  0  0  0  0  0  0  0  0  0  0  0
    0.7500   -1.2990    0.0000 C   0  0  0  0  0  0  0  0  0 15  0  0
    0.7662   -2.9095    0.0000 H   0  0  0  0  0  0  0  0  0  0  0  0
    2.7990   -1.8481    0.0000 H   0  0  0  0  0  0  0  0  0  0  0  0
    1.5000    0.0000    0.0000 C   0  0  0  0  0  0  0  0  0  5  0  0
   -0.7500   -1.2990    0.0000 C   0  0  0  0  0  0  0  0  0  6  0  0
    0.7500    1.2990    0.0000 C   0  0  0  0  0  0  0  0  0  7  0  0
    3.0000    0.0000    0.0000 H   0  0  0  0  0  0  0  0  0  0  0  0
   -1.5000    0.0000    0.0000 C   0  0  0  0  0  0  0  0  0  8  0  0
   -1.5000   -2.5981    0.0000 H   0  0  0  0  0  0  0  0  0  0  0  0
   -0.7500    1.2990    0.0000 C   0  0  0  0  0  0  0  0  0 16  0  0
    1.5000    2.5981    0.0000 H   0  0  0  0  0  0  0  0  0  0  0  0
   -3.0000    0.0000    0.0000 H   0  0  0  0  0  0  0  0  0  0  0  0
   -1.5000    2.5981    0.0000 C   0  0  0  0  0  0  0  0  0 18  0  0
   -0.2010    3.3481    0.0000 C   0  0  0  0  0  0  0  0  0  4  0  0
   -2.2500    3.8971    0.0000 C   0  0  0  0  0  0  0  0  0 14  0  0
   -2.7990    1.8481    0.0000 H   0  0  0  0  0  0  0  0  0  0  0  0
    1.0981    4.0981    0.0000 H   0  0  0  0  0  0  0  0  0  0  0  0
   -0.6143    4.7900    0.0000 H   0  0  0  0  0  0  0  0  0  0  0  0
    0.8411    2.2691    0.0000 H   0  0  0  0  0  0  0  0  0  0  0  0
   -3.7500    3.8971    0.0000 O   0  0  0  0  0  0  0  0  0  2  0  0
   -1.5000    5.1962    0.0000 O   0  0  0  0  0  0  0  0  0  3  0  0
   -2.2500    6.4952    0.0000 H   0  0  0  0  0  0  0  0  0  0  0  0
    2.0402   -7.7375    0.0000 H   0  0  0  0  0  0  0  0  0  0  0  0
    4.7455   -4.8550    0.0000 O   0  0  0  0  0  0  0  0  0  1  0  0
    4.0308   -8.4128    0.0000 H   0  0  0  0  0  0  0  0  0  0  0  0
  1  2  1  0
  2  3  1  0
  2  4  1  0
  1  5  1  0
  1  6  1  0
  1  7  1  0
  5  8  1  0
  5  9  1  0
  5 10  1  0
  8 11  1  0
  8  4  1  0
  8 12  1  1
 11 13  1  0
 11 14  1  0
 11 15  1  0
 13 16  2  0
 17 13  1  0
 16 18  1  0
 16 19  1  0
 20 17  2  0
 17 21  1  0
 18 22  2  0
 18 23  1  0
 22 20  1  0
 20 24  1  0
 22 25  1  0
 25 26  1  0
 25 27  1  0
 25 28  1  6
 26 29  1  0
 26 30  1  0
 26 31  1  0
 27 32  2  0
 27 33  1  0
 33 34  1  0
  2 35  1  0
 36  4  2  0
  3 37  1  0
M  END
>  <SMILES>  (1) 
CC(C(=O)O)c1ccc(CC2CCC(O)C2=O)cc1

>  <Molecular Weight>  (1) 
262.3

>  <Substrate_ID>  (1) 
MOL0061

>  <Substrate>  (1) 


>  <Substrate_SMILES>  (1) 
CC(C(=O)O)c1ccc(CC2CCCC2=O)cc1

>  <Reaction>  (1) 
aliphatic_hydroxylation_(sec_carbon_next_to_SP2,in_a_ring),aliphatic hydroxylation

>  <Score>  (1) 
0.4195

>  <Reaction_Score>  (1) 
0.4755

>  <Bond_Score>  (1) 
0.3702

>  <Rank>  (1) 
1

>  <Subtype>  (1) 
2C8, 2C9, 2C19, 3A4

>  <Subtype_Scores>  (1) 
[2C8] SOM_score: 0.2073, Reaction_score: 0.4755, Score: 0.3139
[2C9] SOM_score: 0.2956, Reaction_score: 0.4755, Score: 0.3749
[2C19] SOM_score: 0.3642, Reaction_score: 0.4755, Score: 0.4161
[3A4] SOM_score: 0.3702, Reaction_score: 0.4755, Score: 0.4195


$$$$

     RDKit          2D

 37 38  0  0  0  0  0  0  0  0999 V2000
    1.0365   -5.9990    0.0000 C   0  0  0  0  0  0  0  0  0 10  0  0
    2.5037   -6.3109    0.0000 C   0  0  0  0  0  0  0  0  0  9  0  0
    3.8740   -6.9210    0.0000 O   0  0  0  0  0  0  0  0  0 19  0  0
    3.2537   -5.0118    0.0000 C   0  0  0  0  0  0  0  0  0 11  0  0
    0.8797   -4.5072    0.0000 C   0  0  0  0  0  0  0  0  0 13  0  0
    0.8797   -7.4908    0.0000 H   0  0  0  0  0  0  0  0  0  0  0  0
   -0.4635   -5.9990    0.0000 H   0  0  0  0  0  0  0  0  0  0  0  0
   -0.5011   -3.9212    0.0000 O   0  0  0  0  0  0  0  0  0  1  0  0
    2.2500   -3.8971    0.0000 C   0  0  0  0  0  0  0  0  0 17  0  0
    1.5000   -2.5981    0.0000 C   0  0  0  0  0  0  0  0  0 12  0  0
    3.4635   -3.0154    0.0000 H   0  0  0  0  0  0  0  0  0  0  0  0
    0.7500   -1.2990    0.0000 C   0  0  0  0  0  0  0  0  0 15  0  0
    0.1192   -3.1841    0.0000 H   0  0  0  0  0  0  0  0  0  0  0  0
    2.7990   -1.8481    0.0000 H   0  0  0  0  0  0  0  0  0  0  0  0
    1.5000    0.0000    0.0000 C   0  0  0  0  0  0  0  0  0  5  0  0
   -0.7500   -1.2990    0.0000 C   0  0  0  0  0  0  0  0  0  6  0  0
    0.7500    1.2990    0.0000 C   0  0  0  0  0  0  0  0  0  7  0  0
    3.0000    0.0000    0.0000 H   0  0  0  0  0  0  0  0  0  0  0  0
   -1.5000    0.0000    0.0000 C   0  0  0  0  0  0  0  0  0  8  0  0
   -1.5000   -2.5981    0.0000 H   0  0  0  0  0  0  0  0  0  0  0  0
   -0.7500    1.2990    0.0000 C   0  0  0  0  0  0  0  0  0 16  0  0
    1.1929    2.0661    0.0000 H   0  0  0  0  0  0  0  0  0  0  0  0
   -3.0000    0.0000    0.0000 H   0  0  0  0  0  0  0  0  0  0  0  0
   -1.5000    2.5981    0.0000 C   0  0  0  0  0  0  0  0  0 18  0  0
   -0.2010    3.3481    0.0000 C   0  0  0  0  0  0  0  0  0  4  0  0
   -2.2500    3.8971    0.0000 C   0  0  0  0  0  0  0  0  0 14  0  0
   -2.7990    1.8481    0.0000 H   0  0  0  0  0  0  0  0  0  0  0  0
    1.0981    4.0981    0.0000 H   0  0  0  0  0  0  0  0  0  0  0  0
   -0.6143    4.7900    0.0000 H   0  0  0  0  0  0  0  0  0  0  0  0
    0.4144    2.7110    0.0000 H   0  0  0  0  0  0  0  0  0  0  0  0
   -3.7500    3.8971    0.0000 O   0  0  0  0  0  0  0  0  0  2  0  0
   -1.5000    5.1962    0.0000 O   0  0  0  0  0  0  0  0  0  3  0  0
   -2.2500    6.4952    0.0000 H   0  0  0  0  0  0  0  0  0  0  0  0
    2.0402   -7.7375    0.0000 H   0  0  0  0  0  0  0  0  0  0  0  0
    4.2574   -3.8971    0.0000 H   0  0  0  0  0  0  0  0  0  0  0  0
    4.4672   -5.8935    0.0000 H   0  0  0  0  0  0  0  0  0  0  0  0
    4.0308   -8.4128    0.0000 H   0  0  0  0  0  0  0  0  0  0  0  0
  1  2  1  0
  2  3  1  0
  2  4  1  0
  5  1  1  0
  1  6  1  0
  1  7  1  0
  8  5  2  0
  9  5  1  0
  4  9  1  0
  9 10  1  0
  9 11  1  6
 10 12  1  0
 10 13  1  0
 10 14  1  0
 12 15  2  0
 16 12  1  0
 15 17  1  0
 15 18  1  0
 19 16  2  0
 16 20  1  0
 17 21  2  0
 17 22  1  0
 21 19  1  0
 19 23  1  0
 21 24  1  0
 24 25  1  0
 24 26  1  0
 24 27  1  6
 25 28  1  0
 25 29  1  0
 25 30  1  0
 26 31  2  0
 26 32  1  0
 32 33  1  0
  2 34  1  0
  4 35  1  0
  4 36  1  0
  3 37  1  0
M  END
>  <SMILES>  (2) 
CC(C(=O)O)c1ccc(CC2CC(O)CC2=O)cc1

>  <Molecular Weight>  (2) 
262.3

>  <Substrate_ID>  (2) 
MOL0061

>  <Substrate>  (2) 


>  <Substrate_SMILES>  (2) 
CC(C(=O)O)c1ccc(CC2CCCC2=O)cc1

>  <Reaction>  (2) 
aliphatic_hydroxylation_(sec_carbon_in_a_ringA),aliphatic hydroxylation

>  <Score>  (2) 
0.1997

>  <Reaction_Score>  (2) 
0.2214

>  <Bond_Score>  (2) 
0.18

>  <Rank>  (2) 
2

>  <Subtype>  (2) 
2C8, 2C9, 2C19, 3A4

>  <Subtype_Scores>  (2) 
[2C8] SOM_score: 0.1101, Reaction_score: 0.2214, Score: 0.1561
[2C9] SOM_score: 0.1561, Reaction_score: 0.2214, Score: 0.1859
[2C19] SOM_score: 0.1518, Reaction_score: 0.2214, Score: 0.1833
[3A4] SOM_score: 0.1800, Reaction_score: 0.2214, Score: 0.1997


$$$$

     RDKit          2D

 37 38  0  0  0  0  0  0  0  0999 V2000
    0.8797   -4.5072    0.0000 C   0  0  0  0  0  0  0  0  0 11  0  0
   -0.5875   -4.8191    0.0000 O   0  0  0  0  0  0  0  0  0 19  0  0
   -1.5912   -3.7044    0.0000 H   0  0  0  0  0  0  0  0  0  0  0  0
    1.0365   -5.9990    0.0000 C   0  0  0  0  0  0  0  0  0  9  0  0
    2.2500   -3.8971    0.0000 C   0  0  0  0  0  0  0  0  0 17  0  0
    0.5428   -3.7848    0.0000 H   0  0  0  0  0  0  0  0  0  0  0  0
    2.5037   -6.3109    0.0000 C   0  0  0  0  0  0  0  0  0 10  0  0
    0.8797   -7.4908    0.0000 H   0  0  0  0  0  0  0  0  0  0  0  0
   -0.4635   -5.9990    0.0000 H   0  0  0  0  0  0  0  0  0  0  0  0
    1.5000   -2.5981    0.0000 C   0  0  0  0  0  0  0  0  0 12  0  0
    3.2537   -5.0118    0.0000 C   0  0  0  0  0  0  0  0  0 13  0  0
    3.4635   -3.0154    0.0000 H   0  0  0  0  0  0  0  0  0  0  0  0
    3.8740   -6.9210    0.0000 H   0  0  0  0  0  0  0  0  0  0  0  0
    2.0402   -7.7375    0.0000 H   0  0  0  0  0  0  0  0  0  0  0  0
    0.7500   -1.2990    0.0000 C   0  0  0  0  0  0  0  0  0 15  0  0
    0.7662   -2.9095    0.0000 H   0  0  0  0  0  0  0  0  0  0  0  0
    2.7990   -1.8481    0.0000 H   0  0  0  0  0  0  0  0  0  0  0  0
    4.7455   -4.8550    0.0000 O   0  0  0  0  0  0  0  0  0  1  0  0
    1.5000    0.0000    0.0000 C   0  0  0  0  0  0  0  0  0  5  0  0
   -0.7500   -1.2990    0.0000 C   0  0  0  0  0  0  0  0  0  6  0  0
    0.7500    1.2990    0.0000 C   0  0  0  0  0  0  0  0  0  7  0  0
    3.0000    0.0000    0.0000 H   0  0  0  0  0  0  0  0  0  0  0  0
   -1.5000    0.0000    0.0000 C   0  0  0  0  0  0  0  0  0  8  0  0
   -1.5000   -2.5981    0.0000 H   0  0  0  0  0  0  0  0  0  0  0  0
   -0.7500    1.2990    0.0000 C   0  0  0  0  0  0  0  0  0 16  0  0
    1.5000    2.5981    0.0000 H   0  0  0  0  0  0  0  0  0  0  0  0
   -3.0000    0.0000    0.0000 H   0  0  0  0  0  0  0  0  0  0  0  0
   -1.5000    2.5981    0.0000 C   0  0  0  0  0  0  0  0  0 18  0  0
   -0.2010    3.3481    0.0000 C   0  0  0  0  0  0  0  0  0  4  0  0
   -2.2500    3.8971    0.0000 C   0  0  0  0  0  0  0  0  0 14  0  0
   -2.7990    1.8481    0.0000 H   0  0  0  0  0  0  0  0  0  0  0  0
    1.0981    4.0981    0.0000 H   0  0  0  0  0  0  0  0  0  0  0  0
   -0.6143    4.7900    0.0000 H   0  0  0  0  0  0  0  0  0  0  0  0
    0.8411    2.2691    0.0000 H   0  0  0  0  0  0  0  0  0  0  0  0
   -3.7500    3.8971    0.0000 O   0  0  0  0  0  0  0  0  0  2  0  0
   -1.5000    5.1962    0.0000 O   0  0  0  0  0  0  0  0  0  3  0  0
   -2.2500    6.4952    0.0000 H   0  0  0  0  0  0  0  0  0  0  0  0
  1  2  1  0
  2  3  1  0
  4  1  1  0
  1  5  1  0
  1  6  1  0
  7  4  1  0
  4  8  1  0
  4  9  1  0
  5 10  1  0
  5 11  1  0
  5 12  1  1
 11  7  1  0
  7 13  1  0
  7 14  1  0
 10 15  1  0
 10 16  1  0
 10 17  1  0
 18 11  2  0
 15 19  2  0
 20 15  1  0
 19 21  1  0
 19 22  1  0
 23 20  2  0
 20 24  1  0
 21 25  2  0
 21 26  1  0
 25 23  1  0
 23 27  1  0
 25 28  1  0
 28 29  1  0
 28 30  1  0
 28 31  1  6
 29 32  1  0
 29 33  1  0
 29 34  1  0
 30 35  2  0
 30 36  1  0
 36 37  1  0
M  END
>  <SMILES>  (3) 
CC(C(=O)O)c1ccc(CC2C(=O)CCC2O)cc1

>  <Molecular Weight>  (3) 
262.3

>  <Substrate_ID>  (3) 
MOL0061

>  <Substrate>  (3) 


>  <Substrate_SMILES>  (3) 
CC(C(=O)O)c1ccc(CC2CCCC2=O)cc1

>  <Reaction>  (3) 
aliphatic hydroxylation

>  <Score>  (3) 
0.1454

>  <Reaction_Score>  (3) 
0.1526

>  <Bond_Score>  (3) 
0.1385

>  <Rank>  (3) 
3

>  <Subtype>  (3) 
2C8, 3A4

>  <Subtype_Scores>  (3) 
[2C8] SOM_score: 0.0728, Reaction_score: 0.1526, Score: 0.1054
[3A4] SOM_score: 0.1385, Reaction_score: 0.1526, Score: 0.1454


$$$$

     RDKit          2D

 37 38  0  0  0  0  0  0  0  0999 V2000
    2.7135   -5.3237    0.0000 C   0  0  0  0  0  0  0  0  0 11  0  0
    2.2500   -3.8971    0.0000 C   0  0  0  0  0  0  0  0  0 17  0  0
    0.8797   -4.5072    0.0000 O   0  0  0  0  0  0  0  0  0 19  0  0
    1.5000   -2.5981    0.0000 C   0  0  0  0  0  0  0  0  0 12  0  0
    3.4635   -3.0154    0.0000 C   0  0  0  0  0  0  0  0  0 13  0  0
    4.2135   -5.3237    0.0000 C   0  0  0  0  0  0  0  0  0  9  0  0
    1.5647   -5.7193    0.0000 H   0  0  0  0  0  0  0  0  0  0  0  0
    2.8703   -6.8155    0.0000 H   0  0  0  0  0  0  0  0  0  0  0  0
    4.6771   -3.8971    0.0000 C   0  0  0  0  0  0  0  0  0 10  0  0
    4.0567   -6.8155    0.0000 H   0  0  0  0  0  0  0  0  0  0  0  0
    5.6807   -5.6356    0.0000 H   0  0  0  0  0  0  0  0  0  0  0  0
    6.0474   -4.5072    0.0000 H   0  0  0  0  0  0  0  0  0  0  0  0
    5.4271   -2.5981    0.0000 H   0  0  0  0  0  0  0  0  0  0  0  0
    0.7500   -1.2990    0.0000 C   0  0  0  0  0  0  0  0  0 15  0  0
    2.6979   -1.6953    0.0000 H   0  0  0  0  0  0  0  0  0  0  0  0
    0.2010   -3.3481    0.0000 H   0  0  0  0  0  0  0  0  0  0  0  0
    1.5000    0.0000    0.0000 C   0  0  0  0  0  0  0  0  0  5  0  0
   -0.7500   -1.2990    0.0000 C   0  0  0  0  0  0  0  0  0  6  0  0
    0.7500    1.2990    0.0000 C   0  0  0  0  0  0  0  0  0  7  0  0
    3.0000    0.0000    0.0000 H   0  0  0  0  0  0  0  0  0  0  0  0
   -1.5000    0.0000    0.0000 C   0  0  0  0  0  0  0  0  0  8  0  0
   -1.5000   -2.5981    0.0000 H   0  0  0  0  0  0  0  0  0  0  0  0
   -0.7500    1.2990    0.0000 C   0  0  0  0  0  0  0  0  0 16  0  0
    1.5000    2.5981    0.0000 H   0  0  0  0  0  0  0  0  0  0  0  0
   -2.3857    0.0000    0.0000 H   0  0  0  0  0  0  0  0  0  0  0  0
   -1.5000    2.5981    0.0000 C   0  0  0  0  0  0  0  0  0 18  0  0
   -2.7990    1.8481    0.0000 C   0  0  0  0  0  0  0  0  0  4  0  0
   -2.2500    3.8971    0.0000 C   0  0  0  0  0  0  0  0  0 14  0  0
   -0.2010    3.3481    0.0000 H   0  0  0  0  0  0  0  0  0  0  0  0
   -2.5549    0.9966    0.0000 H   0  0  0  0  0  0  0  0  0  0  0  0
   -3.7018    3.0460    0.0000 H   0  0  0  0  0  0  0  0  0  0  0  0
   -4.0981    1.0981    0.0000 H   0  0  0  0  0  0  0  0  0  0  0  0
   -3.7388    4.0800    0.0000 O   0  0  0  0  0  0  0  0  0  2  0  0
   -1.5000    5.1962    0.0000 O   0  0  0  0  0  0  0  0  0  3  0  0
   -2.2500    6.4952    0.0000 H   0  0  0  0  0  0  0  0  0  0  0  0
    3.6464   -1.5266    0.0000 O   0  0  0  0  0  0  0  0  0  1  0  0
    0.6063   -5.6911    0.0000 H   0  0  0  0  0  0  0  0  0  0  0  0
  1  2  1  0
  2  3  1  1
  2  4  1  0
  2  5  1  0
  6  1  1  0
  1  7  1  0
  1  8  1  0
  9  6  1  0
  6 10  1  0
  6 11  1  0
  5  9  1  0
  9 12  1  0
  9 13  1  0
  4 14  1  0
  4 15  1  0
  4 16  1  0
 14 17  2  0
 18 14  1  0
 17 19  1  0
 17 20  1  0
 21 18  2  0
 18 22  1  0
 19 23  2  0
 19 24  1  0
 23 21  1  0
 21 25  1  0
 23 26  1  0
 26 27  1  0
 26 28  1  0
 26 29  1  1
 27 30  1  0
 27 31  1  0
 27 32  1  0
 28 33  2  0
 28 34  1  0
 34 35  1  0
 36  5  2  0
  3 37  1  0
M  END
>  <SMILES>  (4) 
CC(C(=O)O)c1ccc(CC2(O)CCCC2=O)cc1

>  <Molecular Weight>  (4) 
262.3

>  <Substrate_ID>  (4) 
MOL0061

>  <Substrate>  (4) 


>  <Substrate_SMILES>  (4) 
CC(C(=O)O)c1ccc(CC2CCCC2=O)cc1

>  <Reaction>  (4) 
aliphatic_hydroxylation_(tert_carbon_next_to_SP2),aliphatic hydroxylation

>  <Score>  (4) 
0.1209

>  <Reaction_Score>  (4) 
0.1022

>  <Bond_Score>  (4) 
0.143

>  <Rank>  (4) 
4

>  <Subtype>  (4) 
3A4

>  <Subtype_Scores>  (4) 
[3A4] SOM_score: 0.1430, Reaction_score: 0.1022, Score: 0.1209


$$$$

     RDKit          2D

 37 38  0  0  0  0  0  0  0  0999 V2000
    0.7500   -1.2990    0.0000 C   0  0  0  0  0  0  0  0  0 15  0  0
    1.5000   -2.5981    0.0000 C   0  0  0  0  0  0  0  0  0 12  0  0
    0.2010   -3.3481    0.0000 O   0  0  0  0  0  0  0  0  0 19  0  0
    2.7990   -1.8481    0.0000 C   0  0  0  0  0  0  0  0  0 17  0  0
    1.5000    0.0000    0.0000 C   0  0  0  0  0  0  0  0  0  5  0  0
   -0.7500   -1.2990    0.0000 C   0  0  0  0  0  0  0  0  0  6  0  0
    0.7500    1.2990    0.0000 C   0  0  0  0  0  0  0  0  0  7  0  0
    2.2912    0.0972    0.0000 H   0  0  0  0  0  0  0  0  0  0  0  0
   -1.5000    0.0000    0.0000 C   0  0  0  0  0  0  0  0  0  8  0  0
   -1.5000   -2.5981    0.0000 H   0  0  0  0  0  0  0  0  0  0  0  0
   -0.7500    1.2990    0.0000 C   0  0  0  0  0  0  0  0  0 16  0  0
    1.5000    2.5981    0.0000 H   0  0  0  0  0  0  0  0  0  0  0  0
   -2.3857    0.0000    0.0000 H   0  0  0  0  0  0  0  0  0  0  0  0
   -1.5000    2.5981    0.0000 C   0  0  0  0  0  0  0  0  0 18  0  0
   -2.7990    1.8481    0.0000 C   0  0  0  0  0  0  0  0  0  4  0  0
   -2.2500    3.8971    0.0000 C   0  0  0  0  0  0  0  0  0 14  0  0
   -0.2010    3.3481    0.0000 H   0  0  0  0  0  0  0  0  0  0  0  0
   -3.7018    3.0460    0.0000 H   0  0  0  0  0  0  0  0  0  0  0  0
   -2.5549    0.9966    0.0000 H   0  0  0  0  0  0  0  0  0  0  0  0
   -4.0981    1.0981    0.0000 H   0  0  0  0  0  0  0  0  0  0  0  0
   -3.7388    4.0800    0.0000 O   0  0  0  0  0  0  0  0  0  2  0  0
   -1.5000    5.1962    0.0000 O   0  0  0  0  0  0  0  0  0  3  0  0
   -2.2500    6.4952    0.0000 H   0  0  0  0  0  0  0  0  0  0  0  0
    2.0861   -3.9788    0.0000 H   0  0  0  0  0  0  0  0  0  0  0  0
    3.9138   -0.8444    0.0000 C   0  0  0  0  0  0  0  0  0 11  0  0
    3.4091   -3.2184    0.0000 C   0  0  0  0  0  0  0  0  0 13  0  0
    2.3895   -0.8342    0.0000 H   0  0  0  0  0  0  0  0  0  0  0  0
    5.2128   -1.5944    0.0000 C   0  0  0  0  0  0  0  0  0  9  0  0
    3.1964   -0.0191    0.0000 H   0  0  0  0  0  0  0  0  0  0  0  0
    4.7954    0.3691    0.0000 H   0  0  0  0  0  0  0  0  0  0  0  0
    2.8231   -4.5992    0.0000 O   0  0  0  0  0  0  0  0  0  1  0  0
    4.9009   -3.0616    0.0000 C   0  0  0  0  0  0  0  0  0 10  0  0
    5.8229   -0.2241    0.0000 H   0  0  0  0  0  0  0  0  0  0  0  0
    6.6394   -2.0579    0.0000 H   0  0  0  0  0  0  0  0  0  0  0  0
    6.3927   -3.2184    0.0000 H   0  0  0  0  0  0  0  0  0  0  0  0
    4.9009   -4.5616    0.0000 H   0  0  0  0  0  0  0  0  0  0  0  0
    0.2010   -4.8481    0.0000 H   0  0  0  0  0  0  0  0  0  0  0  0
  1  2  1  0
  2  3  1  0
  2  4  1  0
  1  5  2  0
  6  1  1  0
  5  7  1  0
  5  8  1  0
  9  6  2  0
  6 10  1  0
  7 11  2  0
  7 12  1  0
 11  9  1  0
  9 13  1  0
 11 14  1  0
 14 15  1  0
 14 16  1  0
 14 17  1  1
 15 18  1  0
 15 19  1  0
 15 20  1  0
 16 21  2  0
 16 22  1  0
 22 23  1  0
  2 24  1  0
 25  4  1  0
  4 26  1  0
  4 27  1  6
 28 25  1  0
 25 29  1  0
 25 30  1  0
 31 26  2  0
 26 32  1  0
 32 28  1  0
 28 33  1  0
 28 34  1  0
 32 35  1  0
 32 36  1  0
  3 37  1  0
M  END
>  <SMILES>  (5) 
CC(C(=O)O)c1ccc(C(O)C2CCCC2=O)cc1

>  <Molecular Weight>  (5) 
262.3

>  <Substrate_ID>  (5) 
MOL0061

>  <Substrate>  (5) 


>  <Substrate_SMILES>  (5) 
CC(C(=O)O)c1ccc(CC2CCCC2=O)cc1

>  <Reaction>  (5) 
benzylic_hydroxylation_(c-CH2-CR),aliphatic hydroxylation

>  <Score>  (5) 
0.1059

>  <Reaction_Score>  (5) 
0.092

>  <Bond_Score>  (5) 
0.1219

>  <Rank>  (5) 
5

>  <Subtype>  (5) 
3A4

>  <Subtype_Scores>  (5) 
[3A4] SOM_score: 0.1219, Reaction_score: 0.0920, Score: 0.1059


$$$$
