
     RDKit          2D

  7  7  0  0  0  0  0  0  0  0999 V2000
    0.8660    0.0000    0.0000 C   0  0  0  0  0  0  0  0  0  2  0  0
   -0.4330    0.7500    0.0000 C   0  0  0  0  0  0  0  0  0  3  0  0
   -0.4330   -0.7500    0.0000 O   0  0  0  0  0  0  0  0  0  4  0  0
    1.8302    1.1491    0.0000 Cl  0  0  0  0  0  0  0  0  0  1  0  0
    1.8302   -1.1491    0.0000 H   0  0  0  0  0  0  0  0  0  0  0  0
   -1.9102    1.0105    0.0000 H   0  0  0  0  0  0  0  0  0  0  0  0
    0.0800    2.1595    0.0000 H   0  0  0  0  0  0  0  0  0  0  0  0
  1  2  1  0
  2  3  1  0
  3  1  1  0
  4  1  1  0
  1  5  1  0
  2  6  1  0
  2  7  1  0
M  END
>  <SMILES>  (1) 
ClC1CO1

>  <Molecular Weight>  (1) 
78.5

>  <Substrate_ID>  (1) 
MOL0098

>  <Substrate>  (1) 


>  <Substrate_SMILES>  (1) 
C=CCl

>  <Reaction>  (1) 
epoxidation

>  <Score>  (1) 
0.3181

>  <Reaction_Score>  (1) 
0.1291

>  <Bond_Score>  (1) 
0.7836

>  <Rank>  (1) 
1

>  <Subtype>  (1) 
1A2, 2A6, 2B6, 2E1

>  <Subtype_Scores>  (1) 
[1A2] SOM_score: 0.2677, Reaction_score: 0.1291, Score: 0.1859
[2A6] SOM_score: 0.5063, Reaction_score: 0.1291, Score: 0.2557
[2B6] SOM_score: 0.5719, Reaction_score: 0.1291, Score: 0.2717
[2E1] SOM_score: 0.7836, Reaction_score: 0.1291, Score: 0.3181


$$$$
