
     RDKit          2D

 33 35  0  0  0  0  0  0  0  0999 V2000
    0.8578    2.6401    0.0000 C   0  0  0  0  0  0  0  0  0 14  0  0
    2.3250    2.9520    0.0000 C   0  0  0  0  0  0  0  0  0 16  0  0
    3.3287    1.8373    0.0000 C   0  0  0  0  0  0  0  0  0  9  0  0
    4.7960    2.1491    0.0000 C   0  0  0  0  0  0  0  0  0  7  0  0
    5.2595    3.5757    0.0000 C   0  0  0  0  0  0  0  0  0  5  0  0
    6.7267    3.8876    0.0000 O   0  0  0  0  0  0  0  0  0 20  0  0
    4.2558    4.6904    0.0000 C   0  0  0  0  0  0  0  0  0  6  0  0
    2.7886    4.3786    0.0000 C   0  0  0  0  0  0  0  0  0  8  0  0
   -0.1459    3.7548    0.0000 O   0  0  0  0  0  0  0  0  0  1  0  0
    0.3943    1.2135    0.0000 C   0  0  0  0  0  0  0  0  0 17  0  0
   -1.0323    0.7500    0.0000 N   0  0  0  0  0  0  0  0  0  4  0  0
    1.2760    0.0000    0.0000 C   0  0  0  0  0  0  0  0  0 10  0  0
   -1.0323   -0.7500    0.0000 C   0  0  0  0  0  0  0  0  0 18  0  0
   -2.4589    1.2135    0.0000 C   0  0  0  0  0  0  0  0  0 13  0  0
    0.3943   -1.2135    0.0000 C   0  0  0  0  0  0  0  0  0 11  0  0
    2.4819   -0.1481    0.0000 H   0  0  0  0  0  0  0  0  0  0  0  0
   -2.4589   -1.2135    0.0000 C   0  0  0  0  0  0  0  0  0 19  0  0
   -3.3405    0.0000    0.0000 C   0  0  0  0  0  0  0  0  0 12  0  0
   -1.8488    2.5838    0.0000 H   0  0  0  0  0  0  0  0  0  0  0  0
   -3.7579    1.9635    0.0000 H   0  0  0  0  0  0  0  0  0  0  0  0
    0.8578   -2.6401    0.0000 H   0  0  0  0  0  0  0  0  0  0  0  0
   -3.7579   -1.9635    0.0000 C   0  0  0  0  0  0  0  0  0 15  0  0
   -1.8488   -2.5838    0.0000 H   0  0  0  0  0  0  0  0  0  0  0  0
   -4.4553    1.0037    0.0000 H   0  0  0  0  0  0  0  0  0  0  0  0
   -4.3358   -0.6969    0.0000 H   0  0  0  0  0  0  0  0  0  0  0  0
   -4.8763   -1.4888    0.0000 O   0  0  0  0  0  0  0  0  0  2  0  0
   -3.7579   -3.4635    0.0000 O   0  0  0  0  0  0  0  0  0  3  0  0
   -5.0569   -4.2135    0.0000 H   0  0  0  0  0  0  0  0  0  0  0  0
    3.0969    0.6446    0.0000 H   0  0  0  0  0  0  0  0  0  0  0  0
    5.7997    1.0344    0.0000 H   0  0  0  0  0  0  0  0  0  0  0  0
    4.7193    6.1170    0.0000 H   0  0  0  0  0  0  0  0  0  0  0  0
    1.7849    5.4933    0.0000 H   0  0  0  0  0  0  0  0  0  0  0  0
    7.1902    5.3142    0.0000 H   0  0  0  0  0  0  0  0  0  0  0  0
  1  2  1  0
  2  3  2  0
  3  4  1  0
  4  5  2  0
  5  6  1  0
  5  7  1  0
  7  8  2  0
  8  2  1  0
  9  1  2  0
  1 10  1  0
 10 11  1  0
 12 10  2  0
 11 13  1  0
 14 11  1  0
 15 12  1  0
 12 16  1  0
 13 15  2  0
 13 17  1  0
 18 14  1  0
 14 19  1  0
 14 20  1  0
 15 21  1  0
 17 22  1  0
 17 18  1  0
 17 23  1  1
 18 24  1  0
 18 25  1  0
 22 26  2  0
 22 27  1  0
 27 28  1  0
  3 29  1  0
  4 30  1  0
  7 31  1  0
  8 32  1  0
  6 33  1  0
M  END
>  <SMILES>  (1) 
O=C(c1ccc(O)cc1)c1ccc2n1CCC2C(=O)O

>  <Molecular Weight>  (1) 
271.3

>  <Substrate_ID>  (1) 
MOL0031

>  <Substrate>  (1) 


>  <Substrate_SMILES>  (1) 
O=C(c1ccccc1)c1ccc2n1CCC2C(=O)O

>  <Reaction>  (1) 
aromatic_hydroxylation_(para_to_carbon),aromatic hydroxylation

>  <Score>  (1) 
0.3493

>  <Reaction_Score>  (1) 
0.3932

>  <Bond_Score>  (1) 
0.3103

>  <Rank>  (1) 
1

>  <Subtype>  (1) 
1A2, 2C8, 2C9, 2C19, 3A4

>  <Subtype_Scores>  (1) 
[1A2] SOM_score: 0.3103, Reaction_score: 0.3932, Score: 0.3493
[2C8] SOM_score: 0.2123, Reaction_score: 0.3932, Score: 0.2889
[2C9] SOM_score: 0.3004, Reaction_score: 0.3932, Score: 0.3437
[2C19] SOM_score: 0.2508, Reaction_score: 0.3932, Score: 0.3141
[3A4] SOM_score: 0.2094, Reaction_score: 0.3932, Score: 0.2869


$$$$

     RDKit          2D

 33 35  0  0  0  0  0  0  0  0999 V2000
    1.2760    0.0000    0.0000 C   0  0  0  0  0  0  0  0  0 12  0  0
    0.3943    1.2135    0.0000 C   0  0  0  0  0  0  0  0  0 13  0  0
   -0.2158    2.5838    0.0000 O   0  0  0  0  0  0  0  0  0 20  0  0
   -1.0323    0.7500    0.0000 N   0  0  0  0  0  0  0  0  0  4  0  0
    0.3943   -1.2135    0.0000 C   0  0  0  0  0  0  0  0  0 19  0  0
    2.3907    1.0037    0.0000 H   0  0  0  0  0  0  0  0  0  0  0  0
    2.2713   -0.6969    0.0000 H   0  0  0  0  0  0  0  0  0  0  0  0
   -1.0323   -0.7500    0.0000 C   0  0  0  0  0  0  0  0  0 18  0  0
    1.6933   -1.9635    0.0000 C   0  0  0  0  0  0  0  0  0 15  0  0
   -0.2158   -2.5838    0.0000 H   0  0  0  0  0  0  0  0  0  0  0  0
   -2.4589   -1.2135    0.0000 C   0  0  0  0  0  0  0  0  0 11  0  0
    2.8118   -1.4888    0.0000 O   0  0  0  0  0  0  0  0  0  2  0  0
    1.6933   -3.4635    0.0000 O   0  0  0  0  0  0  0  0  0  3  0  0
   -3.3405    0.0000    0.0000 C   0  0  0  0  0  0  0  0  0 10  0  0
   -2.9224   -2.6401    0.0000 H   0  0  0  0  0  0  0  0  0  0  0  0
    2.9924   -4.2135    0.0000 H   0  0  0  0  0  0  0  0  0  0  0  0
   -2.4589    1.2135    0.0000 C   0  0  0  0  0  0  0  0  0 17  0  0
   -4.8405   -0.0000    0.0000 H   0  0  0  0  0  0  0  0  0  0  0  0
   -2.9224    2.6401    0.0000 C   0  0  0  0  0  0  0  0  0 14  0  0
   -4.3896    2.9520    0.0000 O   0  0  0  0  0  0  0  0  0  1  0  0
   -1.9187    3.7548    0.0000 C   0  0  0  0  0  0  0  0  0 16  0  0
   -0.4515    3.4430    0.0000 C   0  0  0  0  0  0  0  0  0  8  0  0
   -2.3822    5.1814    0.0000 C   0  0  0  0  0  0  0  0  0  9  0  0
    0.5522    4.5577    0.0000 C   0  0  0  0  0  0  0  0  0  6  0  0
   -0.3959    2.6477    0.0000 H   0  0  0  0  0  0  0  0  0  0  0  0
   -1.3785    6.2961    0.0000 C   0  0  0  0  0  0  0  0  0  7  0  0
   -3.8494    5.4933    0.0000 H   0  0  0  0  0  0  0  0  0  0  0  0
    0.0887    5.9843    0.0000 C   0  0  0  0  0  0  0  0  0  5  0  0
    2.0194    4.2458    0.0000 H   0  0  0  0  0  0  0  0  0  0  0  0
   -1.8421    7.7227    0.0000 H   0  0  0  0  0  0  0  0  0  0  0  0
    1.0924    7.0990    0.0000 H   0  0  0  0  0  0  0  0  0  0  0  0
    1.6933    1.9635    0.0000 H   0  0  0  0  0  0  0  0  0  0  0  0
    0.9333    3.5480    0.0000 H   0  0  0  0  0  0  0  0  0  0  0  0
  1  2  1  0
  2  3  1  0
  2  4  1  0
  5  1  1  0
  1  6  1  0
  1  7  1  0
  8  5  1  0
  5  9  1  0
  5 10  1  6
  4  8  1  0
  8 11  2  0
  9 12  2  0
  9 13  1  0
 11 14  1  0
 11 15  1  0
 13 16  1  0
 14 17  2  0
 14 18  1  0
 19 17  1  0
 17  4  1  0
 20 19  2  0
 19 21  1  0
 21 22  2  0
 23 21  1  0
 22 24  1  0
 22 25  1  0
 26 23  2  0
 23 27  1  0
 24 28  2  0
 24 29  1  0
 28 26  1  0
 26 30  1  0
 28 31  1  0
  2 32  1  0
  3 33  1  0
M  END
>  <SMILES>  (2) 
O=C(c1ccccc1)c1ccc2n1C(O)CC2C(=O)O

>  <Molecular Weight>  (2) 
271.3

>  <Substrate_ID>  (2) 
MOL0031

>  <Substrate>  (2) 


>  <Substrate_SMILES>  (2) 
O=C(c1ccccc1)c1ccc2n1CCC2C(=O)O

>  <Reaction>  (2) 
aliphatic_hydroxylation_(sec_carbon_next_to_SP2,in_a_ring),aliphatic hydroxylation

>  <Score>  (2) 
0.2078

>  <Reaction_Score>  (2) 
0.2276

>  <Bond_Score>  (2) 
0.1898

>  <Rank>  (2) 
2

>  <Subtype>  (2) 
2C8, 3A4

>  <Subtype_Scores>  (2) 
[2C8] SOM_score: 0.0856, Reaction_score: 0.2276, Score: 0.1395
[3A4] SOM_score: 0.1898, Reaction_score: 0.2276, Score: 0.2078


$$$$
