
     RDKit          2D

 43 45  0  0  0  0  0  0  0  0999 V2000
    3.7500    1.2990    0.0000 S   0  0  0  0  0  6  0  0  0  3  0  0
    4.5000    2.5981    0.0000 N   0  0  0  0  0  0  0  0  0 12  0  0
    3.0000    0.0000    0.0000 N   0  0  0  0  0  0  0  0  0 13  0  0
    2.4510    2.0490    0.0000 O   0  0  0  0  0  0  0  0  0  4  0  0
    5.0490    0.5490    0.0000 O   0  0  0  0  0  0  0  0  0  5  0  0
    1.5000    0.0000    0.0000 C   0  0  0  0  0  0  0  0  0 30  0  0
    3.5923   -0.7860    0.0000 H   0  0  0  0  0  0  0  0  0  0  0  0
    0.7500   -1.2990    0.0000 C   0  0  0  0  0  0  0  0  0 32  0  0
    0.7500    1.2990    0.0000 N   0  0  0  0  0  0  0  0  0 10  0  0
    1.5000   -2.5981    0.0000 C   0  0  0  0  0  0  0  0  0 28  0  0
   -0.7500   -1.2990    0.0000 C   0  0  0  0  0  0  0  0  0 31  0  0
   -0.7500    1.2990    0.0000 C   0  0  0  0  0  0  0  0  0 15  0  0
    0.7500   -3.8971    0.0000 C   0  0  0  0  0  0  0  0  0 20  0  0
    3.0000   -2.5981    0.0000 C   0  0  0  0  0  0  0  0  0 21  0  0
   -1.5000    0.0000    0.0000 N   0  0  0  0  0  0  0  0  0 11  0  0
   -1.5000   -2.5981    0.0000 O   0  0  0  0  0  0  0  0  0  7  0  0
   -1.5000    2.5981    0.0000 H   0  0  0  0  0  0  0  0  0  0  0  0
    1.5000   -5.1962    0.0000 C   0  0  0  0  0  0  0  0  0 16  0  0
   -0.7500   -3.8971    0.0000 H   0  0  0  0  0  0  0  0  0  0  0  0
    3.7500   -3.8971    0.0000 C   0  0  0  0  0  0  0  0  0 17  0  0
    3.5923   -1.8121    0.0000 H   0  0  0  0  0  0  0  0  0  0  0  0
   -3.0000   -2.5981    0.0000 C   0  0  0  0  0  0  0  0  0 25  0  0
    3.0000   -5.1962    0.0000 C   0  0  0  0  0  0  0  0  0 26  0  0
    0.7500   -6.4952    0.0000 H   0  0  0  0  0  0  0  0  0  0  0  0
    5.2500   -3.8971    0.0000 H   0  0  0  0  0  0  0  0  0  0  0  0
   -4.5000   -2.5981    0.0000 C   0  0  0  0  0  0  0  0  0 24  0  0
   -3.0000   -1.0981    0.0000 H   0  0  0  0  0  0  0  0  0  0  0  0
   -3.0000   -4.0981    0.0000 H   0  0  0  0  0  0  0  0  0  0  0  0
    3.7500   -6.4952    0.0000 Br  0  0  0  0  0  0  0  0  0  1  0  0
   -6.0000   -2.5981    0.0000 O   0  0  0  0  0  0  0  0  0  6  0  0
   -4.5000   -1.0981    0.0000 H   0  0  0  0  0  0  0  0  0  0  0  0
   -4.5000   -4.0981    0.0000 H   0  0  0  0  0  0  0  0  0  0  0  0
   -6.7500   -3.8971    0.0000 C   0  0  0  0  0  0  0  0  0 29  0  0
   -8.2500   -3.8971    0.0000 N   0  0  0  0  0  0  0  0  0  8  0  0
   -6.0000   -5.1962    0.0000 N   0  0  0  0  0  0  0  0  0  9  0  0
   -9.0000   -5.1962    0.0000 C   0  0  0  0  0  0  0  0  0 18  0  0
   -6.7500   -6.4952    0.0000 C   0  0  0  0  0  0  0  0  0 19  0  0
   -8.2500   -6.4952    0.0000 C   0  0  0  0  0  0  0  0  0 27  0  0
  -10.5000   -5.1962    0.0000 H   0  0  0  0  0  0  0  0  0  0  0  0
   -6.0000   -7.7942    0.0000 H   0  0  0  0  0  0  0  0  0  0  0  0
   -9.0000   -7.7942    0.0000 Br  0  0  0  0  0  0  0  0  0  2  0  0
    6.0000    2.5981    0.0000 H   0  0  0  0  0  0  0  0  0  0  0  0
    3.7500    3.8971    0.0000 H   0  0  0  0  0  0  0  0  0  0  0  0
  1  2  1  0
  3  1  1  0
  1  4  2  0
  1  5  2  0
  6  3  1  0
  3  7  1  0
  8  6  2  0
  6  9  1  0
 10  8  1  0
 11  8  1  0
  9 12  2  0
 13 10  2  0
 10 14  1  0
 15 11  2  0
 11 16  1  0
 12 15  1  0
 12 17  1  0
 18 13  1  0
 13 19  1  0
 14 20  2  0
 14 21  1  0
 16 22  1  0
 23 18  2  0
 18 24  1  0
 20 23  1  0
 20 25  1  0
 22 26  1  0
 22 27  1  0
 22 28  1  0
 29 23  1  0
 26 30  1  0
 26 31  1  0
 26 32  1  0
 30 33  1  0
 33 34  2  0
 35 33  1  0
 34 36  1  0
 37 35  2  0
 36 38  2  0
 36 39  1  0
 38 37  1  0
 37 40  1  0
 38 41  1  0
  2 42  1  0
  2 43  1  0
M  END
>  <SMILES>  (1) 
NS(=O)(=O)Nc1ncnc(OCCOc2ncc(Br)cn2)c1-c1ccc(Br)cc1

>  <Molecular Weight>  (1) 
546.2

>  <Substrate_ID>  (1) 
MOL0049

>  <Substrate>  (1) 


>  <Substrate_SMILES>  (1) 
CCCNS(=O)(=O)Nc1ncnc(OCCOc2ncc(Br)cn2)c1-c1ccc(Br)cc1

>  <Reaction>  (1) 
N-dealkylation_(R-NHCH2-alkyl)

>  <Score>  (1) 
0.2381

>  <Reaction_Score>  (1) 
0.2276

>  <Bond_Score>  (1) 
0.2491

>  <Rank>  (1) 
1

>  <Subtype>  (1) 
2C8, 3A4

>  <Subtype_Scores>  (1) 
[2C8] SOM_score: 0.0783, Reaction_score: 0.2276, Score: 0.1335
[3A4] SOM_score: 0.2491, Reaction_score: 0.2276, Score: 0.2381


$$$$

     RDKit          2D

 11 11  0  0  0  0  0  0  0  0999 V2000
    1.5000    0.0000    0.0000 C   0  0  0  0  0  0  0  0  0 29  0  0
    3.0000    0.0000    0.0000 O   0  0  0  0  0  0  0  0  0  6  0  0
    0.7500   -1.2990    0.0000 N   0  0  0  0  0  0  0  0  0  8  0  0
    0.7500    1.2990    0.0000 N   0  0  0  0  0  0  0  0  0  9  0  0
   -0.7500   -1.2990    0.0000 C   0  0  0  0  0  0  0  0  0 18  0  0
   -0.7500    1.2990    0.0000 C   0  0  0  0  0  0  0  0  0 19  0  0
   -1.5000    0.0000    0.0000 C   0  0  0  0  0  0  0  0  0 27  0  0
   -1.5000   -2.5981    0.0000 H   0  0  0  0  0  0  0  0  0  0  0  0
   -1.5000    2.5981    0.0000 H   0  0  0  0  0  0  0  0  0  0  0  0
   -3.0000    0.0000    0.0000 Br  0  0  0  0  0  0  0  0  0  2  0  0
    3.7500   -1.2990    0.0000 H   0  0  0  0  0  0  0  0  0  0  0  0
  1  2  1  0
  1  3  2  0
  4  1  1  0
  3  5  1  0
  6  4  2  0
  5  7  2  0
  5  8  1  0
  7  6  1  0
  6  9  1  0
  7 10  1  0
  2 11  1  0
M  END
>  <SMILES>  (2) 
Oc1ncc(Br)cn1

>  <Molecular Weight>  (2) 
175.0

>  <Substrate_ID>  (2) 
MOL0049

>  <Substrate>  (2) 


>  <Substrate_SMILES>  (2) 
CCCNS(=O)(=O)Nc1ncnc(OCCOc2ncc(Br)cn2)c1-c1ccc(Br)cc1

>  <Reaction>  (2) 
O-dealkylation_(aromatic)

>  <Score>  (2) 
0.1206

>  <Reaction_Score>  (2) 
0.1115

>  <Bond_Score>  (2) 
0.1305

>  <Rank>  (2) 
2

>  <Subtype>  (2) 
3A4

>  <Subtype_Scores>  (2) 
[3A4] SOM_score: 0.1305, Reaction_score: 0.1115, Score: 0.1206


$$$$

     RDKit          2D

 44 45  0  0  0  0  0  0  0  0999 V2000
    5.2500   -3.8971    0.0000 O   0  0  0  0  0  0  0  0  0 33  0  0
    4.5000   -2.5981    0.0000 C   0  0  0  0  0  0  0  0  0 24  0  0
    3.7500   -1.2990    0.0000 C   0  0  0  0  0  0  0  0  0 25  0  0
    3.2010   -3.3481    0.0000 H   0  0  0  0  0  0  0  0  0  0  0  0
    5.7990   -1.8481    0.0000 H   0  0  0  0  0  0  0  0  0  0  0  0
    3.0000    0.0000    0.0000 O   0  0  0  0  0  0  0  0  0  7  0  0
    2.4510   -2.0490    0.0000 H   0  0  0  0  0  0  0  0  0  0  0  0
    5.0490   -0.5490    0.0000 H   0  0  0  0  0  0  0  0  0  0  0  0
    1.5000    0.0000    0.0000 C   0  0  0  0  0  0  0  0  0 31  0  0
    0.7500   -1.2990    0.0000 N   0  0  0  0  0  0  0  0  0 11  0  0
    0.7500    1.2990    0.0000 C   0  0  0  0  0  0  0  0  0 32  0  0
   -0.7500   -1.2990    0.0000 C   0  0  0  0  0  0  0  0  0 15  0  0
    1.5000    2.5981    0.0000 C   0  0  0  0  0  0  0  0  0 28  0  0
   -0.7500    1.2990    0.0000 C   0  0  0  0  0  0  0  0  0 30  0  0
   -1.5000    0.0000    0.0000 N   0  0  0  0  0  0  0  0  0 10  0  0
   -1.5000   -2.5981    0.0000 H   0  0  0  0  0  0  0  0  0  0  0  0
    3.0000    2.5981    0.0000 C   0  0  0  0  0  0  0  0  0 20  0  0
    0.7500    3.8971    0.0000 C   0  0  0  0  0  0  0  0  0 21  0  0
   -1.5000    2.5981    0.0000 N   0  0  0  0  0  0  0  0  0 13  0  0
    3.7500    3.8971    0.0000 C   0  0  0  0  0  0  0  0  0 16  0  0
    3.7500    1.2990    0.0000 H   0  0  0  0  0  0  0  0  0  0  0  0
    1.5000    5.1962    0.0000 C   0  0  0  0  0  0  0  0  0 17  0  0
   -0.2268    4.0171    0.0000 H   0  0  0  0  0  0  0  0  0  0  0  0
   -3.0000    2.5981    0.0000 S   0  0  0  0  0  6  0  0  0  3  0  0
   -1.1155    3.5040    0.0000 H   0  0  0  0  0  0  0  0  0  0  0  0
    3.0000    5.1962    0.0000 C   0  0  0  0  0  0  0  0  0 26  0  0
    5.2500    3.8971    0.0000 H   0  0  0  0  0  0  0  0  0  0  0  0
    0.7500    6.4952    0.0000 H   0  0  0  0  0  0  0  0  0  0  0  0
   -3.0000    4.0981    0.0000 O   0  0  0  0  0  0  0  0  0  4  0  0
   -3.0000    1.0981    0.0000 O   0  0  0  0  0  0  0  0  0  5  0  0
   -4.5000    2.5981    0.0000 N   0  0  0  0  0  0  0  0  0 12  0  0
    3.7500    6.4952    0.0000 Br  0  0  0  0  0  0  0  0  0  1  0  0
   -5.2500    1.2990    0.0000 C   0  0  0  0  0  0  0  0  0 23  0  0
   -5.2500    3.8971    0.0000 H   0  0  0  0  0  0  0  0  0  0  0  0
   -6.0000    0.0000    0.0000 C   0  0  0  0  0  0  0  0  0 22  0  0
   -3.9510    0.5490    0.0000 H   0  0  0  0  0  0  0  0  0  0  0  0
   -6.5490    2.0490    0.0000 H   0  0  0  0  0  0  0  0  0  0  0  0
   -6.7500   -1.2990    0.0000 C   0  0  0  0  0  0  0  0  0 14  0  0
   -4.7010   -0.7500    0.0000 H   0  0  0  0  0  0  0  0  0  0  0  0
   -7.2990    0.7500    0.0000 H   0  0  0  0  0  0  0  0  0  0  0  0
   -7.5000   -2.5981    0.0000 H   0  0  0  0  0  0  0  0  0  0  0  0
   -8.0490   -0.5490    0.0000 H   0  0  0  0  0  0  0  0  0  0  0  0
   -5.4510   -2.0490    0.0000 H   0  0  0  0  0  0  0  0  0  0  0  0
    6.7500   -3.8971    0.0000 H   0  0  0  0  0  0  0  0  0  0  0  0
  1  2  1  0
  3  2  1  0
  2  4  1  0
  2  5  1  0
  6  3  1  0
  3  7  1  0
  3  8  1  0
  9  6  1  0
 10  9  2  0
  9 11  1  0
 12 10  1  0
 13 11  1  0
 11 14  2  0
 15 12  2  0
 12 16  1  0
 17 13  2  0
 13 18  1  0
 14 19  1  0
 14 15  1  0
 20 17  1  0
 17 21  1  0
 18 22  2  0
 18 23  1  0
 19 24  1  0
 19 25  1  0
 26 20  2  0
 20 27  1  0
 22 26  1  0
 22 28  1  0
 24 29  2  0
 24 30  2  0
 24 31  1  0
 32 26  1  0
 31 33  1  0
 31 34  1  0
 33 35  1  0
 33 36  1  0
 33 37  1  0
 35 38  1  0
 35 39  1  0
 35 40  1  0
 38 41  1  0
 38 42  1  0
 38 43  1  0
  1 44  1  0
M  END
>  <SMILES>  (3) 
CCCNS(=O)(=O)Nc1ncnc(OCCO)c1-c1ccc(Br)cc1

>  <Molecular Weight>  (3) 
431.3

>  <Substrate_ID>  (3) 
MOL0049

>  <Substrate>  (3) 


>  <Substrate_SMILES>  (3) 
CCCNS(=O)(=O)Nc1ncnc(OCCOc2ncc(Br)cn2)c1-c1ccc(Br)cc1

>  <Reaction>  (3) 
O-dealkylation_(aromatic)

>  <Score>  (3) 
0.1206

>  <Reaction_Score>  (3) 
0.1115

>  <Bond_Score>  (3) 
0.1305

>  <Rank>  (3) 
2

>  <Subtype>  (3) 
3A4

>  <Subtype_Scores>  (3) 
[3A4] SOM_score: 0.1305, Reaction_score: 0.1115, Score: 0.1206


$$$$

     RDKit          2D

 37 38  0  0  0  0  0  0  0  0999 V2000
    1.5000    0.0000    0.0000 C   0  0  0  0  0  0  0  0  0 31  0  0
    3.0000    0.0000    0.0000 O   0  0  0  0  0  0  0  0  0  7  0  0
    0.7500   -1.2990    0.0000 N   0  0  0  0  0  0  0  0  0 11  0  0
    0.7500    1.2990    0.0000 C   0  0  0  0  0  0  0  0  0 32  0  0
   -0.7500   -1.2990    0.0000 C   0  0  0  0  0  0  0  0  0 15  0  0
    1.5000    2.5981    0.0000 C   0  0  0  0  0  0  0  0  0 28  0  0
   -0.7500    1.2990    0.0000 C   0  0  0  0  0  0  0  0  0 30  0  0
   -1.5000    0.0000    0.0000 N   0  0  0  0  0  0  0  0  0 10  0  0
   -1.5000   -2.5981    0.0000 H   0  0  0  0  0  0  0  0  0  0  0  0
    3.0000    2.5981    0.0000 C   0  0  0  0  0  0  0  0  0 20  0  0
    0.7500    3.8971    0.0000 C   0  0  0  0  0  0  0  0  0 21  0  0
   -1.5000    2.5981    0.0000 N   0  0  0  0  0  0  0  0  0 13  0  0
    3.7500    3.8971    0.0000 C   0  0  0  0  0  0  0  0  0 16  0  0
    3.7500    1.2990    0.0000 H   0  0  0  0  0  0  0  0  0  0  0  0
    1.5000    5.1962    0.0000 C   0  0  0  0  0  0  0  0  0 17  0  0
   -0.2268    4.0171    0.0000 H   0  0  0  0  0  0  0  0  0  0  0  0
   -3.0000    2.5981    0.0000 S   0  0  0  0  0  6  0  0  0  3  0  0
   -1.1155    3.5040    0.0000 H   0  0  0  0  0  0  0  0  0  0  0  0
    3.0000    5.1962    0.0000 C   0  0  0  0  0  0  0  0  0 26  0  0
    5.2500    3.8971    0.0000 H   0  0  0  0  0  0  0  0  0  0  0  0
    0.7500    6.4952    0.0000 H   0  0  0  0  0  0  0  0  0  0  0  0
   -3.0000    4.0981    0.0000 O   0  0  0  0  0  0  0  0  0  4  0  0
   -3.0000    1.0981    0.0000 O   0  0  0  0  0  0  0  0  0  5  0  0
   -4.5000    2.5981    0.0000 N   0  0  0  0  0  0  0  0  0 12  0  0
    3.7500    6.4952    0.0000 Br  0  0  0  0  0  0  0  0  0  1  0  0
   -5.2500    1.2990    0.0000 C   0  0  0  0  0  0  0  0  0 23  0  0
   -5.2500    3.8971    0.0000 H   0  0  0  0  0  0  0  0  0  0  0  0
   -6.0000    0.0000    0.0000 C   0  0  0  0  0  0  0  0  0 22  0  0
   -3.9510    0.5490    0.0000 H   0  0  0  0  0  0  0  0  0  0  0  0
   -6.5490    2.0490    0.0000 H   0  0  0  0  0  0  0  0  0  0  0  0
   -6.7500   -1.2990    0.0000 C   0  0  0  0  0  0  0  0  0 14  0  0
   -4.7010   -0.7500    0.0000 H   0  0  0  0  0  0  0  0  0  0  0  0
   -7.2990    0.7500    0.0000 H   0  0  0  0  0  0  0  0  0  0  0  0
   -7.5000   -2.5981    0.0000 H   0  0  0  0  0  0  0  0  0  0  0  0
   -8.0490   -0.5490    0.0000 H   0  0  0  0  0  0  0  0  0  0  0  0
   -5.4510   -2.0490    0.0000 H   0  0  0  0  0  0  0  0  0  0  0  0
    3.7500   -1.2990    0.0000 H   0  0  0  0  0  0  0  0  0  0  0  0
  1  2  1  0
  3  1  2  0
  1  4  1  0
  5  3  1  0
  6  4  1  0
  4  7  2  0
  8  5  2  0
  5  9  1  0
 10  6  2  0
  6 11  1  0
  7 12  1  0
  7  8  1  0
 13 10  1  0
 10 14  1  0
 11 15  2  0
 11 16  1  0
 12 17  1  0
 12 18  1  0
 19 13  2  0
 13 20  1  0
 15 19  1  0
 15 21  1  0
 17 22  2  0
 17 23  2  0
 17 24  1  0
 25 19  1  0
 24 26  1  0
 24 27  1  0
 26 28  1  0
 26 29  1  0
 26 30  1  0
 28 31  1  0
 28 32  1  0
 28 33  1  0
 31 34  1  0
 31 35  1  0
 31 36  1  0
  2 37  1  0
M  END
>  <SMILES>  (4) 
CCCNS(=O)(=O)Nc1ncnc(O)c1-c1ccc(Br)cc1

>  <Molecular Weight>  (4) 
387.3

>  <Substrate_ID>  (4) 
MOL0049

>  <Substrate>  (4) 


>  <Substrate_SMILES>  (4) 
CCCNS(=O)(=O)Nc1ncnc(OCCOc2ncc(Br)cn2)c1-c1ccc(Br)cc1

>  <Reaction>  (4) 
O-dealkylation_(aromatic)

>  <Score>  (4) 
0.1121

>  <Reaction_Score>  (4) 
0.1026

>  <Bond_Score>  (4) 
0.1224

>  <Rank>  (4) 
3

>  <Subtype>  (4) 
3A4

>  <Subtype_Scores>  (4) 
[3A4] SOM_score: 0.1224, Reaction_score: 0.1026, Score: 0.1121


$$$$

     RDKit          2D

 18 18  0  0  0  0  0  0  0  0999 V2000
    5.2500   -3.8971    0.0000 O   0  0  0  0  0  0  0  0  0 33  0  0
    4.5000   -2.5981    0.0000 C   0  0  0  0  0  0  0  0  0 25  0  0
    3.7500   -1.2990    0.0000 C   0  0  0  0  0  0  0  0  0 24  0  0
    3.2010   -3.3481    0.0000 H   0  0  0  0  0  0  0  0  0  0  0  0
    5.7990   -1.8481    0.0000 H   0  0  0  0  0  0  0  0  0  0  0  0
    3.0000    0.0000    0.0000 O   0  0  0  0  0  0  0  0  0  6  0  0
    2.4510   -2.0490    0.0000 H   0  0  0  0  0  0  0  0  0  0  0  0
    5.0490   -0.5490    0.0000 H   0  0  0  0  0  0  0  0  0  0  0  0
    1.5000    0.0000    0.0000 C   0  0  0  0  0  0  0  0  0 29  0  0
    0.7500   -1.2990    0.0000 N   0  0  0  0  0  0  0  0  0  8  0  0
    0.7500    1.2990    0.0000 N   0  0  0  0  0  0  0  0  0  9  0  0
   -0.7500   -1.2990    0.0000 C   0  0  0  0  0  0  0  0  0 18  0  0
   -0.7500    1.2990    0.0000 C   0  0  0  0  0  0  0  0  0 19  0  0
   -1.5000    0.0000    0.0000 C   0  0  0  0  0  0  0  0  0 27  0  0
   -1.5000   -2.5981    0.0000 H   0  0  0  0  0  0  0  0  0  0  0  0
   -1.5000    2.5981    0.0000 H   0  0  0  0  0  0  0  0  0  0  0  0
   -3.0000    0.0000    0.0000 Br  0  0  0  0  0  0  0  0  0  2  0  0
    6.7500   -3.8971    0.0000 H   0  0  0  0  0  0  0  0  0  0  0  0
  1  2  1  0
  2  3  1  0
  2  4  1  0
  2  5  1  0
  3  6  1  0
  3  7  1  0
  3  8  1  0
  6  9  1  0
  9 10  2  0
 11  9  1  0
 10 12  1  0
 13 11  2  0
 12 14  2  0
 12 15  1  0
 14 13  1  0
 13 16  1  0
 14 17  1  0
  1 18  1  0
M  END
>  <SMILES>  (5) 
OCCOc1ncc(Br)cn1

>  <Molecular Weight>  (5) 
219.0

>  <Substrate_ID>  (5) 
MOL0049

>  <Substrate>  (5) 


>  <Substrate_SMILES>  (5) 
CCCNS(=O)(=O)Nc1ncnc(OCCOc2ncc(Br)cn2)c1-c1ccc(Br)cc1

>  <Reaction>  (5) 
O-dealkylation_(aromatic)

>  <Score>  (5) 
0.1121

>  <Reaction_Score>  (5) 
0.1026

>  <Bond_Score>  (5) 
0.1224

>  <Rank>  (5) 
3

>  <Subtype>  (5) 
3A4

>  <Subtype_Scores>  (5) 
[3A4] SOM_score: 0.1224, Reaction_score: 0.1026, Score: 0.1121


$$$$

     RDKit          2D

 53 55  0  0  0  0  0  0  0  0999 V2000
    4.5000    2.5981    0.0000 N   0  0  0  0  0  0  0  0  0 12  0  0
    3.7500    3.8971    0.0000 O   0  0  0  0  0  0  0  0  0 33  0  0
    4.5000    5.1962    0.0000 H   0  0  0  0  0  0  0  0  0  0  0  0
    6.0000    2.5981    0.0000 C   0  0  0  0  0  0  0  0  0 23  0  0
    3.7500    1.2990    0.0000 S   0  0  0  0  0  6  0  0  0  3  0  0
    3.0000    0.0000    0.0000 N   0  0  0  0  0  0  0  0  0 13  0  0
    2.4510    2.0490    0.0000 O   0  0  0  0  0  0  0  0  0  4  0  0
    5.0490    0.5490    0.0000 O   0  0  0  0  0  0  0  0  0  5  0  0
    1.5000    0.0000    0.0000 C   0  0  0  0  0  0  0  0  0 30  0  0
    3.5923   -0.7860    0.0000 H   0  0  0  0  0  0  0  0  0  0  0  0
    0.7500   -1.2990    0.0000 C   0  0  0  0  0  0  0  0  0 32  0  0
    0.7500    1.2990    0.0000 N   0  0  0  0  0  0  0  0  0 10  0  0
    1.5000   -2.5981    0.0000 C   0  0  0  0  0  0  0  0  0 28  0  0
   -0.7500   -1.2990    0.0000 C   0  0  0  0  0  0  0  0  0 31  0  0
   -0.7500    1.2990    0.0000 C   0  0  0  0  0  0  0  0  0 15  0  0
    0.7500   -3.8971    0.0000 C   0  0  0  0  0  0  0  0  0 20  0  0
    3.0000   -2.5981    0.0000 C   0  0  0  0  0  0  0  0  0 21  0  0
   -1.5000    0.0000    0.0000 N   0  0  0  0  0  0  0  0  0 11  0  0
   -1.5000   -2.5981    0.0000 O   0  0  0  0  0  0  0  0  0  7  0  0
   -1.5000    2.5981    0.0000 H   0  0  0  0  0  0  0  0  0  0  0  0
    1.5000   -5.1962    0.0000 C   0  0  0  0  0  0  0  0  0 16  0  0
   -0.7500   -3.8971    0.0000 H   0  0  0  0  0  0  0  0  0  0  0  0
    3.7500   -3.8971    0.0000 C   0  0  0  0  0  0  0  0  0 17  0  0
    3.5923   -1.8121    0.0000 H   0  0  0  0  0  0  0  0  0  0  0  0
   -3.0000   -2.5981    0.0000 C   0  0  0  0  0  0  0  0  0 25  0  0
    3.0000   -5.1962    0.0000 C   0  0  0  0  0  0  0  0  0 26  0  0
    0.7500   -6.4952    0.0000 H   0  0  0  0  0  0  0  0  0  0  0  0
    5.2500   -3.8971    0.0000 H   0  0  0  0  0  0  0  0  0  0  0  0
   -4.5000   -2.5981    0.0000 C   0  0  0  0  0  0  0  0  0 24  0  0
   -3.0000   -1.0981    0.0000 H   0  0  0  0  0  0  0  0  0  0  0  0
   -3.0000   -4.0981    0.0000 H   0  0  0  0  0  0  0  0  0  0  0  0
    3.7500   -6.4952    0.0000 Br  0  0  0  0  0  0  0  0  0  1  0  0
   -6.0000   -2.5981    0.0000 O   0  0  0  0  0  0  0  0  0  6  0  0
   -4.5000   -1.0981    0.0000 H   0  0  0  0  0  0  0  0  0  0  0  0
   -4.5000   -4.0981    0.0000 H   0  0  0  0  0  0  0  0  0  0  0  0
   -6.7500   -3.8971    0.0000 C   0  0  0  0  0  0  0  0  0 29  0  0
   -8.2500   -3.8971    0.0000 N   0  0  0  0  0  0  0  0  0  8  0  0
   -6.0000   -5.1962    0.0000 N   0  0  0  0  0  0  0  0  0  9  0  0
   -9.0000   -5.1962    0.0000 C   0  0  0  0  0  0  0  0  0 18  0  0
   -6.7500   -6.4952    0.0000 C   0  0  0  0  0  0  0  0  0 19  0  0
   -8.2500   -6.4952    0.0000 C   0  0  0  0  0  0  0  0  0 27  0  0
  -10.5000   -5.1962    0.0000 H   0  0  0  0  0  0  0  0  0  0  0  0
   -6.0000   -7.7942    0.0000 H   0  0  0  0  0  0  0  0  0  0  0  0
   -9.0000   -7.7942    0.0000 Br  0  0  0  0  0  0  0  0  0  2  0  0
    7.5000    2.5981    0.0000 C   0  0  0  0  0  0  0  0  0 22  0  0
    6.0000    1.0981    0.0000 H   0  0  0  0  0  0  0  0  0  0  0  0
    6.0000    4.0981    0.0000 H   0  0  0  0  0  0  0  0  0  0  0  0
    9.0000    2.5981    0.0000 C   0  0  0  0  0  0  0  0  0 14  0  0
    7.5000    1.0981    0.0000 H   0  0  0  0  0  0  0  0  0  0  0  0
    7.5000    4.0981    0.0000 H   0  0  0  0  0  0  0  0  0  0  0  0
   10.5000    2.5981    0.0000 H   0  0  0  0  0  0  0  0  0  0  0  0
    9.0000    4.0981    0.0000 H   0  0  0  0  0  0  0  0  0  0  0  0
    9.0000    1.0981    0.0000 H   0  0  0  0  0  0  0  0  0  0  0  0
  1  2  1  0
  2  3  1  0
  1  4  1  0
  5  1  1  0
  6  5  1  0
  5  7  2  0
  5  8  2  0
  9  6  1  0
  6 10  1  0
 11  9  2  0
  9 12  1  0
 13 11  1  0
 14 11  1  0
 12 15  2  0
 16 13  2  0
 13 17  1  0
 18 14  2  0
 14 19  1  0
 15 18  1  0
 15 20  1  0
 21 16  1  0
 16 22  1  0
 17 23  2  0
 17 24  1  0
 19 25  1  0
 26 21  2  0
 21 27  1  0
 23 26  1  0
 23 28  1  0
 25 29  1  0
 25 30  1  0
 25 31  1  0
 32 26  1  0
 29 33  1  0
 29 34  1  0
 29 35  1  0
 33 36  1  0
 36 37  2  0
 38 36  1  0
 37 39  1  0
 40 38  2  0
 39 41  2  0
 39 42  1  0
 41 40  1  0
 40 43  1  0
 41 44  1  0
  4 45  1  0
  4 46  1  0
  4 47  1  0
 45 48  1  0
 45 49  1  0
 45 50  1  0
 48 51  1  0
 48 52  1  0
 48 53  1  0
M  END
>  <SMILES>  (6) 
CCCN(O)S(=O)(=O)Nc1ncnc(OCCOc2ncc(Br)cn2)c1-c1ccc(Br)cc1

>  <Molecular Weight>  (6) 
604.3

>  <Substrate_ID>  (6) 
MOL0049

>  <Substrate>  (6) 


>  <Substrate_SMILES>  (6) 
CCCNS(=O)(=O)Nc1ncnc(OCCOc2ncc(Br)cn2)c1-c1ccc(Br)cc1

>  <Reaction>  (6) 
amine hydroxylation

>  <Score>  (6) 
0.0415

>  <Reaction_Score>  (6) 
0.0057

>  <Bond_Score>  (6) 
0.3041

>  <Rank>  (6) 
4

>  <Subtype>  (6) 
3A4

>  <Subtype_Scores>  (6) 
[3A4] SOM_score: 0.3041, Reaction_score: 0.0057, Score: 0.0415


$$$$
