
     RDKit          2D

 67 71  0  0  0  0  0  0  0  0999 V2000
    1.5000   -2.5981    0.0000 C   0  0  0  0  0  0  0  0  0 31  0  0
    0.2010   -3.3481    0.0000 C   0  0  0  0  0  0  0  0  0 29  0  0
   -1.0981   -2.5981    0.0000 C   0  0  0  0  0  0  0  0  0 16  0  0
   -2.3971   -3.3481    0.0000 C   0  0  0  0  0  0  0  0  0 10  0  0
   -2.3971   -4.8481    0.0000 C   0  0  0  0  0  0  0  0  0  5  0  0
   -3.6962   -5.5981    0.0000 O   0  0  0  0  0  0  0  0  0 33  0  0
   -1.0981   -5.5981    0.0000 C   0  0  0  0  0  0  0  0  0  9  0  0
    0.2010   -4.8481    0.0000 C   0  0  0  0  0  0  0  0  0 15  0  0
    2.2500   -3.8971    0.0000 O   0  0  0  0  0  0  0  0  0  1  0  0
    2.7990   -1.8481    0.0000 C   0  0  0  0  0  0  0  0  0 30  0  0
    0.7500   -1.2990    0.0000 C   0  0  0  0  0  0  0  0  0 32  0  0
    1.6639   -5.2779    0.0000 H   0  0  0  0  0  0  0  0  0  0  0  0
    4.0981   -2.5981    0.0000 C   0  0  0  0  0  0  0  0  0 17  0  0
    2.7990   -0.3481    0.0000 C   0  0  0  0  0  0  0  0  0 18  0  0
    1.5000    0.0000    0.0000 C   0  0  0  0  0  0  0  0  0 21  0  0
   -0.7500   -1.2990    0.0000 C   0  0  0  0  0  0  0  0  0 22  0  0
    0.2954   -0.6125    0.0000 C   0  0  0  0  0  0  0  0  0 23  0  0
    5.3971   -1.8481    0.0000 C   0  0  0  0  0  0  0  0  0 11  0  0
    4.0981   -4.0981    0.0000 H   0  0  0  0  0  0  0  0  0  0  0  0
    4.0981    0.4019    0.0000 C   0  0  0  0  0  0  0  0  0 12  0  0
    2.2256    0.2057    0.0000 H   0  0  0  0  0  0  0  0  0  0  0  0
    0.7500    1.2990    0.0000 C   0  0  0  0  0  0  0  0  0 25  0  0
    2.6491    0.9642    0.0000 H   0  0  0  0  0  0  0  0  0  0  0  0
    2.8482   -0.6575    0.0000 H   0  0  0  0  0  0  0  0  0  0  0  0
   -1.5000    0.0000    0.0000 C   0  0  0  0  0  0  0  0  0 26  0  0
   -1.0363   -2.7715    0.0000 H   0  0  0  0  0  0  0  0  0  0  0  0
   -2.2116   -1.6364    0.0000 H   0  0  0  0  0  0  0  0  0  0  0  0
   -0.3828    0.5621    0.0000 C   0  0  0  0  0  0  0  0  0 27  0  0
   -0.6715   -2.7970    0.0000 H   0  0  0  0  0  0  0  0  0  0  0  0
   -2.0865   -1.9801    0.0000 H   0  0  0  0  0  0  0  0  0  0  0  0
    5.3971   -0.3481    0.0000 C   0  0  0  0  0  0  0  0  0  6  0  0
    6.6962   -2.5981    0.0000 H   0  0  0  0  0  0  0  0  0  0  0  0
    4.0981    1.9019    0.0000 H   0  0  0  0  0  0  0  0  0  0  0  0
   -0.7500    1.2990    0.0000 N   0  0  0  0  0  4  0  0  0  3  0  0
    0.6715    2.7970    0.0000 H   0  0  0  0  0  0  0  0  0  0  0  0
    2.1595    1.8121    0.0000 H   0  0  0  0  0  0  0  0  0  0  0  0
   -2.7580   -0.8169    0.0000 H   0  0  0  0  0  0  0  0  0  0  0  0
   -2.6491    0.9642    0.0000 H   0  0  0  0  0  0  0  0  0  0  0  0
   -2.5230   -1.0971    0.0000 H   0  0  0  0  0  0  0  0  0  0  0  0
   -2.8482    0.6575    0.0000 H   0  0  0  0  0  0  0  0  0  0  0  0
    6.6962    0.4019    0.0000 H   0  0  0  0  0  0  0  0  0  0  0  0
   -1.5000    2.5981    0.0000 C   0  0  0  0  0  0  0  0  0 24  0  0
   -2.2500    3.8971    0.0000 C   0  0  0  0  0  0  0  0  0 19  0  0
   -2.9419    2.1847    0.0000 H   0  0  0  0  0  0  0  0  0  0  0  0
   -0.3021    3.5008    0.0000 H   0  0  0  0  0  0  0  0  0  0  0  0
   -3.0000    5.1962    0.0000 O   0  0  0  0  0  0  0  0  0  2  0  0
   -0.9510    4.6471    0.0000 H   0  0  0  0  0  0  0  0  0  0  0  0
   -3.5490    3.1471    0.0000 H   0  0  0  0  0  0  0  0  0  0  0  0
   -4.5000    5.1962    0.0000 C   0  0  0  0  0  0  0  0  0 20  0  0
   -6.0000    5.1962    0.0000 C   0  0  0  0  0  0  0  0  0 28  0  0
   -4.5000    3.6962    0.0000 H   0  0  0  0  0  0  0  0  0  0  0  0
   -4.5000    6.6962    0.0000 H   0  0  0  0  0  0  0  0  0  0  0  0
   -6.7500    6.4952    0.0000 C   0  0  0  0  0  0  0  0  0 13  0  0
   -6.7500    3.8971    0.0000 C   0  0  0  0  0  0  0  0  0 14  0  0
   -8.2500    6.4952    0.0000 C   0  0  0  0  0  0  0  0  0  7  0  0
   -6.0000    7.7942    0.0000 H   0  0  0  0  0  0  0  0  0  0  0  0
   -8.2500    3.8971    0.0000 C   0  0  0  0  0  0  0  0  0  8  0  0
   -6.0000    2.5981    0.0000 H   0  0  0  0  0  0  0  0  0  0  0  0
   -9.0000    5.1962    0.0000 C   0  0  0  0  0  0  0  0  0  4  0  0
   -9.0000    7.7942    0.0000 H   0  0  0  0  0  0  0  0  0  0  0  0
   -9.0000    2.5981    0.0000 H   0  0  0  0  0  0  0  0  0  0  0  0
  -10.5000    5.1962    0.0000 H   0  0  0  0  0  0  0  0  0  0  0  0
   -1.8024   -1.2737    0.0000 H   0  0  0  0  0  0  0  0  0  0  0  0
   -3.6962   -2.5981    0.0000 H   0  0  0  0  0  0  0  0  0  0  0  0
   -1.0981   -7.0981    0.0000 H   0  0  0  0  0  0  0  0  0  0  0  0
    1.3989   -5.7508    0.0000 H   0  0  0  0  0  0  0  0  0  0  0  0
   -3.6962   -7.0981    0.0000 H   0  0  0  0  0  0  0  0  0  0  0  0
  1  2  1  0
  2  3  2  0
  3  4  1  0
  4  5  2  0
  5  6  1  0
  5  7  1  0
  7  8  2  0
  8  2  1  0
  9  1  1  0
  1 10  1  0
 11  1  1  6
  9 12  1  0
 10 13  2  0
 14 10  1  0
 11 15  1  0
 16 11  1  0
 17 11  1  0
 13 18  1  0
 13 19  1  0
 20 14  2  0
 14 21  1  0
 15 22  1  0
 15 23  1  0
 15 24  1  0
 25 16  1  0
 16 26  1  0
 16 27  1  0
 28 17  1  0
 17 29  1  0
 17 30  1  0
 18 31  2  0
 18 32  1  0
 31 20  1  0
 20 33  1  0
 22 34  1  0
 22 35  1  0
 22 36  1  0
 34 25  1  0
 25 37  1  0
 25 38  1  0
 34 28  1  0
 28 39  1  0
 28 40  1  0
 31 41  1  0
 34 42  1  6
 42 43  1  0
 42 44  1  0
 42 45  1  0
 43 46  1  0
 43 47  1  0
 43 48  1  0
 46 49  1  0
 49 50  1  0
 49 51  1  0
 49 52  1  0
 50 53  2  0
 54 50  1  0
 53 55  1  0
 53 56  1  0
 57 54  2  0
 54 58  1  0
 55 59  2  0
 55 60  1  0
 59 57  1  0
 57 61  1  0
 59 62  1  0
  3 63  1  0
  4 64  1  0
  7 65  1  0
  8 66  1  0
  6 67  1  0
M  CHG  1  34   1
M  END
>  <SMILES>  (1) 
Oc1ccc(C(O)(c2ccccc2)C23CC[N+](CCOCc4ccccc4)(CC2)CC3)cc1

>  <Molecular Weight>  (1) 
444.6

>  <Substrate_ID>  (1) 
MOL0008

>  <Substrate>  (1) 


>  <Substrate_SMILES>  (1) 
OC(c1ccccc1)(c1ccccc1)C12CC[N+](CCOCc3ccccc3)(CC1)CC2

>  <Reaction>  (1) 
aromatic_hydroxylation_(para_to_carbon),aromatic hydroxylation

>  <Score>  (1) 
0.1753

>  <Reaction_Score>  (1) 
0.18

>  <Bond_Score>  (1) 
0.1707

>  <Rank>  (1) 
1

>  <Subtype>  (1) 
2C8, 3A4

>  <Subtype_Scores>  (1) 
[2C8] SOM_score: 0.0820, Reaction_score: 0.1800, Score: 0.1215
[3A4] SOM_score: 0.1707, Reaction_score: 0.1800, Score: 0.1753


$$$$

     RDKit          2D

 53 56  0  0  0  0  0  0  0  0999 V2000
    2.2500   -3.8971    0.0000 C   0  0  0  0  0  0  0  0  0 19  0  0
    3.0000   -5.1962    0.0000 O   0  0  0  0  0  0  0  0  0  2  0  0
    1.5000   -2.5981    0.0000 C   0  0  0  0  0  0  0  0  0 24  0  0
    0.9510   -4.6471    0.0000 H   0  0  0  0  0  0  0  0  0  0  0  0
    3.5490   -3.1471    0.0000 H   0  0  0  0  0  0  0  0  0  0  0  0
    0.7500   -1.2990    0.0000 N   0  0  0  0  0  4  0  0  0  3  0  0
    0.4210   -3.6401    0.0000 H   0  0  0  0  0  0  0  0  0  0  0  0
    2.8808   -2.0120    0.0000 H   0  0  0  0  0  0  0  0  0  0  0  0
    1.5000    0.0000    0.0000 C   0  0  0  0  0  0  0  0  0 25  0  0
   -0.7500   -1.2990    0.0000 C   0  0  0  0  0  0  0  0  0 26  0  0
    0.2954   -0.6125    0.0000 C   0  0  0  0  0  0  0  0  0 27  0  0
    0.7500    1.2990    0.0000 C   0  0  0  0  0  0  0  0  0 21  0  0
    2.6491    0.9642    0.0000 H   0  0  0  0  0  0  0  0  0  0  0  0
    2.7580   -0.8169    0.0000 H   0  0  0  0  0  0  0  0  0  0  0  0
   -1.5000    0.0000    0.0000 C   0  0  0  0  0  0  0  0  0 22  0  0
   -0.5962   -2.1713    0.0000 H   0  0  0  0  0  0  0  0  0  0  0  0
   -2.2116   -1.6364    0.0000 H   0  0  0  0  0  0  0  0  0  0  0  0
   -0.3828    0.5621    0.0000 C   0  0  0  0  0  0  0  0  0 23  0  0
   -0.0655   -1.2975    0.0000 H   0  0  0  0  0  0  0  0  0  0  0  0
   -2.0865   -1.9801    0.0000 H   0  0  0  0  0  0  0  0  0  0  0  0
   -0.7500    1.2990    0.0000 C   0  0  0  0  0  0  0  0  0 32  0  0
    0.8547    2.7954    0.0000 H   0  0  0  0  0  0  0  0  0  0  0  0
    2.1595    1.8121    0.0000 H   0  0  0  0  0  0  0  0  0  0  0  0
   -2.7580   -0.8169    0.0000 H   0  0  0  0  0  0  0  0  0  0  0  0
   -2.7580    0.8169    0.0000 H   0  0  0  0  0  0  0  0  0  0  0  0
   -2.5230   -1.0971    0.0000 H   0  0  0  0  0  0  0  0  0  0  0  0
   -2.9183    0.4882    0.0000 H   0  0  0  0  0  0  0  0  0  0  0  0
   -1.5000    2.5981    0.0000 C   0  0  0  0  0  0  0  0  0 31  0  0
   -2.2500    3.8971    0.0000 O   0  0  0  0  0  0  0  0  0  1  0  0
   -2.7990    1.8481    0.0000 C   0  0  0  0  0  0  0  0  0 29  0  0
   -0.2010    3.3481    0.0000 C   0  0  0  0  0  0  0  0  0 30  0  0
   -3.7388    4.0800    0.0000 H   0  0  0  0  0  0  0  0  0  0  0  0
   -4.0981    2.5981    0.0000 C   0  0  0  0  0  0  0  0  0 15  0  0
   -2.7990    0.3481    0.0000 C   0  0  0  0  0  0  0  0  0 16  0  0
    1.0981    2.5981    0.0000 C   0  0  0  0  0  0  0  0  0 17  0  0
   -0.2010    4.8481    0.0000 C   0  0  0  0  0  0  0  0  0 18  0  0
   -5.3971    1.8481    0.0000 C   0  0  0  0  0  0  0  0  0  9  0  0
   -4.2809    4.0869    0.0000 H   0  0  0  0  0  0  0  0  0  0  0  0
   -4.0981   -0.4019    0.0000 C   0  0  0  0  0  0  0  0  0 10  0  0
   -2.0043   -0.9241    0.0000 H   0  0  0  0  0  0  0  0  0  0  0  0
    2.3971    3.3481    0.0000 C   0  0  0  0  0  0  0  0  0 11  0  0
    1.4610    1.1427    0.0000 H   0  0  0  0  0  0  0  0  0  0  0  0
    1.0981    5.5981    0.0000 C   0  0  0  0  0  0  0  0  0 12  0  0
   -1.5000    5.5981    0.0000 H   0  0  0  0  0  0  0  0  0  0  0  0
   -5.3971    0.3481    0.0000 C   0  0  0  0  0  0  0  0  0  5  0  0
   -6.6962    2.5981    0.0000 H   0  0  0  0  0  0  0  0  0  0  0  0
   -4.0981   -1.9019    0.0000 H   0  0  0  0  0  0  0  0  0  0  0  0
    2.3971    4.8481    0.0000 C   0  0  0  0  0  0  0  0  0  6  0  0
    3.6962    2.5981    0.0000 H   0  0  0  0  0  0  0  0  0  0  0  0
    1.0981    7.0981    0.0000 H   0  0  0  0  0  0  0  0  0  0  0  0
   -6.6962   -0.4019    0.0000 H   0  0  0  0  0  0  0  0  0  0  0  0
    3.6962    5.5981    0.0000 H   0  0  0  0  0  0  0  0  0  0  0  0
    4.5000   -5.1962    0.0000 H   0  0  0  0  0  0  0  0  0  0  0  0
  1  2  1  0
  3  1  1  0
  1  4  1  0
  1  5  1  0
  6  3  1  1
  3  7  1  0
  3  8  1  0
  9  6  1  0
  6 10  1  0
  6 11  1  0
 12  9  1  0
  9 13  1  0
  9 14  1  0
 10 15  1  0
 10 16  1  0
 10 17  1  0
 11 18  1  0
 11 19  1  0
 11 20  1  0
 21 12  1  0
 12 22  1  0
 12 23  1  0
 15 21  1  0
 15 24  1  0
 15 25  1  0
 18 21  1  0
 18 26  1  0
 18 27  1  0
 21 28  1  1
 29 28  1  0
 28 30  1  0
 28 31  1  0
 29 32  1  0
 30 33  2  0
 34 30  1  0
 31 35  2  0
 36 31  1  0
 33 37  1  0
 33 38  1  0
 39 34  2  0
 34 40  1  0
 35 41  1  0
 35 42  1  0
 43 36  2  0
 36 44  1  0
 37 45  2  0
 37 46  1  0
 45 39  1  0
 39 47  1  0
 41 48  2  0
 41 49  1  0
 48 43  1  0
 43 50  1  0
 45 51  1  0
 48 52  1  0
  2 53  1  0
M  CHG  1   6   1
M  END
>  <SMILES>  (2) 
OCC[N+]12CCC(C(O)(c3ccccc3)c3ccccc3)(CC1)CC2

>  <Molecular Weight>  (2) 
338.5

>  <Substrate_ID>  (2) 
MOL0008

>  <Substrate>  (2) 


>  <Substrate_SMILES>  (2) 
OC(c1ccccc1)(c1ccccc1)C12CC[N+](CCOCc3ccccc3)(CC1)CC2

>  <Reaction>  (2) 
O-dealkylation_(aliphatic),O-dealkylation_(ether)

>  <Score>  (2) 
0.1501

>  <Reaction_Score>  (2) 
0.1231

>  <Bond_Score>  (2) 
0.183

>  <Rank>  (2) 
2

>  <Subtype>  (2) 
3A4

>  <Subtype_Scores>  (2) 
[3A4] SOM_score: 0.1830, Reaction_score: 0.1231, Score: 0.1501


$$$$

     RDKit          2D

 16 16  0  0  0  0  0  0  0  0999 V2000
    4.5000    0.0000    0.0000 O   0  0  0  0  0  0  0  0  0 33  0  0
    3.0000    0.0000    0.0000 C   0  0  0  0  0  0  0  0  0 20  0  0
    1.5000    0.0000    0.0000 C   0  0  0  0  0  0  0  0  0 28  0  0
    3.0000   -1.5000    0.0000 H   0  0  0  0  0  0  0  0  0  0  0  0
    3.0000    1.5000    0.0000 H   0  0  0  0  0  0  0  0  0  0  0  0
    0.7500   -1.2990    0.0000 C   0  0  0  0  0  0  0  0  0 13  0  0
    0.7500    1.2990    0.0000 C   0  0  0  0  0  0  0  0  0 14  0  0
   -0.7500   -1.2990    0.0000 C   0  0  0  0  0  0  0  0  0  7  0  0
    1.5000   -2.5981    0.0000 H   0  0  0  0  0  0  0  0  0  0  0  0
   -0.7500    1.2990    0.0000 C   0  0  0  0  0  0  0  0  0  8  0  0
    1.5000    2.5981    0.0000 H   0  0  0  0  0  0  0  0  0  0  0  0
   -1.5000    0.0000    0.0000 C   0  0  0  0  0  0  0  0  0  4  0  0
   -1.5000   -2.5981    0.0000 H   0  0  0  0  0  0  0  0  0  0  0  0
   -1.5000    2.5981    0.0000 H   0  0  0  0  0  0  0  0  0  0  0  0
   -3.0000    0.0000    0.0000 H   0  0  0  0  0  0  0  0  0  0  0  0
    5.2500    1.2990    0.0000 H   0  0  0  0  0  0  0  0  0  0  0  0
  1  2  1  0
  2  3  1  0
  2  4  1  0
  2  5  1  0
  3  6  2  0
  7  3  1  0
  6  8  1  0
  6  9  1  0
 10  7  2  0
  7 11  1  0
  8 12  2  0
  8 13  1  0
 12 10  1  0
 10 14  1  0
 12 15  1  0
  1 16  1  0
M  END
>  <SMILES>  (3) 
OCc1ccccc1

>  <Molecular Weight>  (3) 
108.1

>  <Substrate_ID>  (3) 
MOL0008

>  <Substrate>  (3) 


>  <Substrate_SMILES>  (3) 
OC(c1ccccc1)(c1ccccc1)C12CC[N+](CCOCc3ccccc3)(CC1)CC2

>  <Reaction>  (3) 
O-dealkylation_(aliphatic),O-dealkylation_(ether)

>  <Score>  (3) 
0.1501

>  <Reaction_Score>  (3) 
0.1231

>  <Bond_Score>  (3) 
0.183

>  <Rank>  (3) 
2

>  <Subtype>  (3) 
3A4

>  <Subtype_Scores>  (3) 
[3A4] SOM_score: 0.1830, Reaction_score: 0.1231, Score: 0.1501


$$$$

     RDKit          2D

 67 71  0  0  0  0  0  0  0  0999 V2000
    4.5000   -5.1962    0.0000 C   0  0  0  0  0  0  0  0  0 20  0  0
    6.0000   -5.1962    0.0000 C   0  0  0  0  0  0  0  0  0 28  0  0
    6.7500   -6.4952    0.0000 C   0  0  0  0  0  0  0  0  0 14  0  0
    8.2500   -6.4952    0.0000 C   0  0  0  0  0  0  0  0  0  8  0  0
    9.0000   -5.1962    0.0000 C   0  0  0  0  0  0  0  0  0  4  0  0
   10.5000   -5.1962    0.0000 O   0  0  0  0  0  0  0  0  0 33  0  0
    8.2500   -3.8971    0.0000 C   0  0  0  0  0  0  0  0  0  7  0  0
    6.7500   -3.8971    0.0000 C   0  0  0  0  0  0  0  0  0 13  0  0
    3.0000   -5.1962    0.0000 O   0  0  0  0  0  0  0  0  0  2  0  0
    4.5000   -3.6962    0.0000 H   0  0  0  0  0  0  0  0  0  0  0  0
    4.5000   -6.6962    0.0000 H   0  0  0  0  0  0  0  0  0  0  0  0
    2.2500   -3.8971    0.0000 C   0  0  0  0  0  0  0  0  0 19  0  0
    1.5000   -2.5981    0.0000 C   0  0  0  0  0  0  0  0  0 24  0  0
    0.9510   -4.6471    0.0000 H   0  0  0  0  0  0  0  0  0  0  0  0
    3.5490   -3.1471    0.0000 H   0  0  0  0  0  0  0  0  0  0  0  0
    0.7500   -1.2990    0.0000 N   0  0  0  0  0  4  0  0  0  3  0  0
    0.4210   -3.6401    0.0000 H   0  0  0  0  0  0  0  0  0  0  0  0
    2.8808   -2.0120    0.0000 H   0  0  0  0  0  0  0  0  0  0  0  0
    1.5000    0.0000    0.0000 C   0  0  0  0  0  0  0  0  0 25  0  0
   -0.7500   -1.2990    0.0000 C   0  0  0  0  0  0  0  0  0 26  0  0
    0.2954   -0.6125    0.0000 C   0  0  0  0  0  0  0  0  0 27  0  0
    0.7500    1.2990    0.0000 C   0  0  0  0  0  0  0  0  0 21  0  0
    2.6491    0.9642    0.0000 H   0  0  0  0  0  0  0  0  0  0  0  0
    2.7580   -0.8169    0.0000 H   0  0  0  0  0  0  0  0  0  0  0  0
   -1.5000    0.0000    0.0000 C   0  0  0  0  0  0  0  0  0 22  0  0
   -0.5962   -2.1713    0.0000 H   0  0  0  0  0  0  0  0  0  0  0  0
   -2.2116   -1.6364    0.0000 H   0  0  0  0  0  0  0  0  0  0  0  0
   -0.3828    0.5621    0.0000 C   0  0  0  0  0  0  0  0  0 23  0  0
   -0.0655   -1.2975    0.0000 H   0  0  0  0  0  0  0  0  0  0  0  0
   -2.0865   -1.9801    0.0000 H   0  0  0  0  0  0  0  0  0  0  0  0
   -0.7500    1.2990    0.0000 C   0  0  0  0  0  0  0  0  0 32  0  0
    0.8547    2.7954    0.0000 H   0  0  0  0  0  0  0  0  0  0  0  0
    2.1595    1.8121    0.0000 H   0  0  0  0  0  0  0  0  0  0  0  0
   -2.7580   -0.8169    0.0000 H   0  0  0  0  0  0  0  0  0  0  0  0
   -2.7580    0.8169    0.0000 H   0  0  0  0  0  0  0  0  0  0  0  0
   -2.5230   -1.0971    0.0000 H   0  0  0  0  0  0  0  0  0  0  0  0
   -2.9183    0.4882    0.0000 H   0  0  0  0  0  0  0  0  0  0  0  0
   -1.5000    2.5981    0.0000 C   0  0  0  0  0  0  0  0  0 31  0  0
   -2.2500    3.8971    0.0000 O   0  0  0  0  0  0  0  0  0  1  0  0
   -2.7990    1.8481    0.0000 C   0  0  0  0  0  0  0  0  0 29  0  0
   -0.2010    3.3481    0.0000 C   0  0  0  0  0  0  0  0  0 30  0  0
   -3.7388    4.0800    0.0000 H   0  0  0  0  0  0  0  0  0  0  0  0
   -4.0981    2.5981    0.0000 C   0  0  0  0  0  0  0  0  0 15  0  0
   -2.7990    0.3481    0.0000 C   0  0  0  0  0  0  0  0  0 16  0  0
    1.0981    2.5981    0.0000 C   0  0  0  0  0  0  0  0  0 17  0  0
   -0.2010    4.8481    0.0000 C   0  0  0  0  0  0  0  0  0 18  0  0
   -5.3971    1.8481    0.0000 C   0  0  0  0  0  0  0  0  0  9  0  0
   -4.2809    4.0869    0.0000 H   0  0  0  0  0  0  0  0  0  0  0  0
   -4.0981   -0.4019    0.0000 C   0  0  0  0  0  0  0  0  0 10  0  0
   -2.0043   -0.9241    0.0000 H   0  0  0  0  0  0  0  0  0  0  0  0
    2.3971    3.3481    0.0000 C   0  0  0  0  0  0  0  0  0 11  0  0
    1.4610    1.1427    0.0000 H   0  0  0  0  0  0  0  0  0  0  0  0
    1.0981    5.5981    0.0000 C   0  0  0  0  0  0  0  0  0 12  0  0
   -1.5000    5.5981    0.0000 H   0  0  0  0  0  0  0  0  0  0  0  0
   -5.3971    0.3481    0.0000 C   0  0  0  0  0  0  0  0  0  5  0  0
   -6.6962    2.5981    0.0000 H   0  0  0  0  0  0  0  0  0  0  0  0
   -4.0981   -1.9019    0.0000 H   0  0  0  0  0  0  0  0  0  0  0  0
    2.3971    4.8481    0.0000 C   0  0  0  0  0  0  0  0  0  6  0  0
    3.6962    2.5981    0.0000 H   0  0  0  0  0  0  0  0  0  0  0  0
    1.0981    7.0981    0.0000 H   0  0  0  0  0  0  0  0  0  0  0  0
   -6.6962   -0.4019    0.0000 H   0  0  0  0  0  0  0  0  0  0  0  0
    3.6962    5.5981    0.0000 H   0  0  0  0  0  0  0  0  0  0  0  0
    6.0000   -7.7942    0.0000 H   0  0  0  0  0  0  0  0  0  0  0  0
    9.0000   -7.7942    0.0000 H   0  0  0  0  0  0  0  0  0  0  0  0
    9.0000   -2.5981    0.0000 H   0  0  0  0  0  0  0  0  0  0  0  0
    6.0000   -2.5981    0.0000 H   0  0  0  0  0  0  0  0  0  0  0  0
   11.2500   -3.8971    0.0000 H   0  0  0  0  0  0  0  0  0  0  0  0
  1  2  1  0
  2  3  2  0
  3  4  1  0
  4  5  2  0
  5  6  1  0
  5  7  1  0
  7  8  2  0
  8  2  1  0
  9  1  1  0
  1 10  1  0
  1 11  1  0
 12  9  1  0
 13 12  1  0
 12 14  1  0
 12 15  1  0
 16 13  1  1
 13 17  1  0
 13 18  1  0
 19 16  1  0
 16 20  1  0
 16 21  1  0
 22 19  1  0
 19 23  1  0
 19 24  1  0
 20 25  1  0
 20 26  1  0
 20 27  1  0
 21 28  1  0
 21 29  1  0
 21 30  1  0
 31 22  1  0
 22 32  1  0
 22 33  1  0
 25 31  1  0
 25 34  1  0
 25 35  1  0
 28 31  1  0
 28 36  1  0
 28 37  1  0
 31 38  1  1
 39 38  1  0
 38 40  1  0
 38 41  1  0
 39 42  1  0
 40 43  2  0
 44 40  1  0
 41 45  2  0
 46 41  1  0
 43 47  1  0
 43 48  1  0
 49 44  2  0
 44 50  1  0
 45 51  1  0
 45 52  1  0
 53 46  2  0
 46 54  1  0
 47 55  2  0
 47 56  1  0
 55 49  1  0
 49 57  1  0
 51 58  2  0
 51 59  1  0
 58 53  1  0
 53 60  1  0
 55 61  1  0
 58 62  1  0
  3 63  1  0
  4 64  1  0
  7 65  1  0
  8 66  1  0
  6 67  1  0
M  CHG  1  16   1
M  END
>  <SMILES>  (4) 
Oc1ccc(COCC[N+]23CCC(C(O)(c4ccccc4)c4ccccc4)(CC2)CC3)cc1

>  <Molecular Weight>  (4) 
444.6

>  <Substrate_ID>  (4) 
MOL0008

>  <Substrate>  (4) 


>  <Substrate_SMILES>  (4) 
OC(c1ccccc1)(c1ccccc1)C12CC[N+](CCOCc3ccccc3)(CC1)CC2

>  <Reaction>  (4) 
aromatic_hydroxylation_(para_to_carbon),aromatic hydroxylation

>  <Score>  (4) 
0.1443

>  <Reaction_Score>  (4) 
0.1549

>  <Bond_Score>  (4) 
0.1345

>  <Rank>  (4) 
3

>  <Subtype>  (4) 
3A4

>  <Subtype_Scores>  (4) 
[3A4] SOM_score: 0.1345, Reaction_score: 0.1549, Score: 0.1443


$$$$
