
     RDKit          2D

 27 27  0  0  0  0  0  0  0  0999 V2000
    4.5000    0.0000    0.0000 C   0  0  0  0  0  0  0  0  0 11  0  0
    4.5000   -1.5000    0.0000 C   0  0  0  0  0  0  0  0  0  2  0  0
    4.5000   -3.0000    0.0000 O   0  0  0  0  0  0  0  0  0 12  0  0
    6.0000   -0.0000    0.0000 N   0  0  0  0  0  0  0  0  0  1  0  0
    4.5000    1.5000    0.0000 C   0  0  0  0  0  0  0  0  0  3  0  0
    3.0000    0.0000    0.0000 C   0  0  0  0  0  0  0  0  0  9  0  0
    6.9028   -1.1979    0.0000 H   0  0  0  0  0  0  0  0  0  0  0  0
    6.9028    1.1979    0.0000 H   0  0  0  0  0  0  0  0  0  0  0  0
    4.5000    3.0000    0.0000 H   0  0  0  0  0  0  0  0  0  0  0  0
    5.9888    1.6828    0.0000 H   0  0  0  0  0  0  0  0  0  0  0  0
    3.6209    1.6080    0.0000 H   0  0  0  0  0  0  0  0  0  0  0  0
    1.5000    0.0000    0.0000 C   0  0  0  0  0  0  0  0  0 10  0  0
    2.8920   -0.8791    0.0000 H   0  0  0  0  0  0  0  0  0  0  0  0
    2.8920    0.8791    0.0000 H   0  0  0  0  0  0  0  0  0  0  0  0
    0.7500   -1.2990    0.0000 C   0  0  0  0  0  0  0  0  0  7  0  0
    0.7500    1.2990    0.0000 C   0  0  0  0  0  0  0  0  0  8  0  0
   -0.7500   -1.2990    0.0000 C   0  0  0  0  0  0  0  0  0  5  0  0
    1.5000   -2.5981    0.0000 H   0  0  0  0  0  0  0  0  0  0  0  0
   -0.7500    1.2990    0.0000 C   0  0  0  0  0  0  0  0  0  6  0  0
    1.5000    2.5981    0.0000 H   0  0  0  0  0  0  0  0  0  0  0  0
   -1.5000    0.0000    0.0000 C   0  0  0  0  0  0  0  0  0  4  0  0
   -1.5000   -2.5981    0.0000 H   0  0  0  0  0  0  0  0  0  0  0  0
   -1.5000    2.5981    0.0000 H   0  0  0  0  0  0  0  0  0  0  0  0
   -3.0000    0.0000    0.0000 H   0  0  0  0  0  0  0  0  0  0  0  0
    5.9888   -1.6828    0.0000 H   0  0  0  0  0  0  0  0  0  0  0  0
    3.6209   -1.6080    0.0000 H   0  0  0  0  0  0  0  0  0  0  0  0
    3.2010   -3.7500    0.0000 H   0  0  0  0  0  0  0  0  0  0  0  0
  1  2  1  0
  2  3  1  0
  4  1  1  0
  1  5  1  0
  1  6  1  0
  4  7  1  0
  4  8  1  0
  5  9  1  0
  5 10  1  0
  5 11  1  0
  6 12  1  0
  6 13  1  0
  6 14  1  0
 12 15  2  0
 16 12  1  0
 15 17  1  0
 15 18  1  0
 19 16  2  0
 16 20  1  0
 17 21  2  0
 17 22  1  0
 21 19  1  0
 19 23  1  0
 21 24  1  0
  2 25  1  0
  2 26  1  0
  3 27  1  0
M  END
>  <SMILES>  (1) 
CC(N)(CO)Cc1ccccc1

>  <Molecular Weight>  (1) 
165.2

>  <Substrate_ID>  (1) 
MOL0033

>  <Substrate>  (1) 


>  <Substrate_SMILES>  (1) 
CC(C)(N)Cc1ccccc1

>  <Reaction>  (1) 
aliphatic_hydroxylation_(primary_carbon_next_to_quart_carbon),aliphatic hydroxylation

>  <Score>  (1) 
0.2508

>  <Reaction_Score>  (1) 
0.2471

>  <Bond_Score>  (1) 
0.2546

>  <Rank>  (1) 
1

>  <Subtype>  (1) 
2A6, 2E1

>  <Subtype_Scores>  (1) 
[2A6] SOM_score: 0.1599, Reaction_score: 0.2471, Score: 0.1988
[2E1] SOM_score: 0.2546, Reaction_score: 0.2471, Score: 0.2508


$$$$

     RDKit          2D

 27 27  0  0  0  0  0  0  0  0999 V2000
    3.0000    0.0000    0.0000 C   0  0  0  0  0  0  0  0  0  9  0  0
    1.5000    0.0000    0.0000 C   0  0  0  0  0  0  0  0  0 10  0  0
    0.7500   -1.2990    0.0000 C   0  0  0  0  0  0  0  0  0  8  0  0
   -0.7500   -1.2990    0.0000 C   0  0  0  0  0  0  0  0  0  6  0  0
   -1.5000    0.0000    0.0000 C   0  0  0  0  0  0  0  0  0  4  0  0
   -3.0000    0.0000    0.0000 O   0  0  0  0  0  0  0  0  0 12  0  0
   -0.7500    1.2990    0.0000 C   0  0  0  0  0  0  0  0  0  5  0  0
    0.7500    1.2990    0.0000 C   0  0  0  0  0  0  0  0  0  7  0  0
    4.5000    0.0000    0.0000 C   0  0  0  0  0  0  0  0  0 11  0  0
    2.8920   -0.8791    0.0000 H   0  0  0  0  0  0  0  0  0  0  0  0
    2.8172    1.4888    0.0000 H   0  0  0  0  0  0  0  0  0  0  0  0
    4.5000    1.5000    0.0000 N   0  0  0  0  0  0  0  0  0  1  0  0
    6.0000    0.0000    0.0000 C   0  0  0  0  0  0  0  0  0  2  0  0
    4.5000   -1.5000    0.0000 C   0  0  0  0  0  0  0  0  0  3  0  0
    5.6979    2.4028    0.0000 H   0  0  0  0  0  0  0  0  0  0  0  0
    3.3021    2.4028    0.0000 H   0  0  0  0  0  0  0  0  0  0  0  0
    7.5000    0.0000    0.0000 H   0  0  0  0  0  0  0  0  0  0  0  0
    6.1828    1.4888    0.0000 H   0  0  0  0  0  0  0  0  0  0  0  0
    6.1080   -0.8791    0.0000 H   0  0  0  0  0  0  0  0  0  0  0  0
    4.5000   -3.0000    0.0000 H   0  0  0  0  0  0  0  0  0  0  0  0
    5.3791   -1.6080    0.0000 H   0  0  0  0  0  0  0  0  0  0  0  0
    3.6209   -1.6080    0.0000 H   0  0  0  0  0  0  0  0  0  0  0  0
    1.5000   -2.5981    0.0000 H   0  0  0  0  0  0  0  0  0  0  0  0
   -1.5000   -2.5981    0.0000 H   0  0  0  0  0  0  0  0  0  0  0  0
   -1.5000    2.5981    0.0000 H   0  0  0  0  0  0  0  0  0  0  0  0
    1.5000    2.5981    0.0000 H   0  0  0  0  0  0  0  0  0  0  0  0
   -3.7500    1.2990    0.0000 H   0  0  0  0  0  0  0  0  0  0  0  0
  1  2  1  0
  2  3  2  0
  3  4  1  0
  4  5  2  0
  5  6  1  0
  5  7  1  0
  7  8  2  0
  8  2  1  0
  9  1  1  0
  1 10  1  0
  1 11  1  0
 12  9  1  0
  9 13  1  0
  9 14  1  0
 12 15  1  0
 12 16  1  0
 13 17  1  0
 13 18  1  0
 13 19  1  0
 14 20  1  0
 14 21  1  0
 14 22  1  0
  3 23  1  0
  4 24  1  0
  7 25  1  0
  8 26  1  0
  6 27  1  0
M  END
>  <SMILES>  (2) 
CC(C)(N)Cc1ccc(O)cc1

>  <Molecular Weight>  (2) 
165.2

>  <Substrate_ID>  (2) 
MOL0033

>  <Substrate>  (2) 


>  <Substrate_SMILES>  (2) 
CC(C)(N)Cc1ccccc1

>  <Reaction>  (2) 
aromatic_hydroxylation_(para_to_carbon),aromatic hydroxylation

>  <Score>  (2) 
0.1369

>  <Reaction_Score>  (2) 
0.1121

>  <Bond_Score>  (2) 
0.1672

>  <Rank>  (2) 
2

>  <Subtype>  (2) 
2A6, 2E1

>  <Subtype_Scores>  (2) 
[2A6] SOM_score: 0.0881, Reaction_score: 0.1121, Score: 0.0994
[2E1] SOM_score: 0.1672, Reaction_score: 0.1121, Score: 0.1369


$$$$

     RDKit          2D

 27 27  0  0  0  0  0  0  0  0999 V2000
    1.5000    0.0000    0.0000 C   0  0  0  0  0  0  0  0  0 10  0  0
    3.0000    0.0000    0.0000 C   0  0  0  0  0  0  0  0  0  9  0  0
    3.0000   -1.5000    0.0000 O   0  0  0  0  0  0  0  0  0 12  0  0
    4.5000    0.0000    0.0000 C   0  0  0  0  0  0  0  0  0 11  0  0
    0.7500   -1.2990    0.0000 C   0  0  0  0  0  0  0  0  0  7  0  0
    0.7500    1.2990    0.0000 C   0  0  0  0  0  0  0  0  0  8  0  0
   -0.7500   -1.2990    0.0000 C   0  0  0  0  0  0  0  0  0  5  0  0
    1.5000   -2.5981    0.0000 H   0  0  0  0  0  0  0  0  0  0  0  0
   -0.7500    1.2990    0.0000 C   0  0  0  0  0  0  0  0  0  6  0  0
    1.5000    2.5981    0.0000 H   0  0  0  0  0  0  0  0  0  0  0  0
   -1.5000    0.0000    0.0000 C   0  0  0  0  0  0  0  0  0  4  0  0
   -1.5000   -2.5981    0.0000 H   0  0  0  0  0  0  0  0  0  0  0  0
   -1.5000    2.5981    0.0000 H   0  0  0  0  0  0  0  0  0  0  0  0
   -3.0000    0.0000    0.0000 H   0  0  0  0  0  0  0  0  0  0  0  0
    2.8920    0.8791    0.0000 H   0  0  0  0  0  0  0  0  0  0  0  0
    4.5000   -1.5000    0.0000 N   0  0  0  0  0  0  0  0  0  1  0  0
    6.0000    0.0000    0.0000 C   0  0  0  0  0  0  0  0  0  2  0  0
    4.5000    1.5000    0.0000 C   0  0  0  0  0  0  0  0  0  3  0  0
    5.6979   -2.4028    0.0000 H   0  0  0  0  0  0  0  0  0  0  0  0
    3.8629   -2.1153    0.0000 H   0  0  0  0  0  0  0  0  0  0  0  0
    7.5000    0.0000    0.0000 H   0  0  0  0  0  0  0  0  0  0  0  0
    6.1828   -1.4888    0.0000 H   0  0  0  0  0  0  0  0  0  0  0  0
    6.1080    0.8791    0.0000 H   0  0  0  0  0  0  0  0  0  0  0  0
    4.5000    3.0000    0.0000 H   0  0  0  0  0  0  0  0  0  0  0  0
    5.3791    1.6080    0.0000 H   0  0  0  0  0  0  0  0  0  0  0  0
    3.6209    1.6080    0.0000 H   0  0  0  0  0  0  0  0  0  0  0  0
    3.6371   -2.1153    0.0000 H   0  0  0  0  0  0  0  0  0  0  0  0
  1  2  1  0
  2  3  1  0
  2  4  1  0
  1  5  2  0
  6  1  1  0
  5  7  1  0
  5  8  1  0
  9  6  2  0
  6 10  1  0
  7 11  2  0
  7 12  1  0
 11  9  1  0
  9 13  1  0
 11 14  1  0
  2 15  1  0
 16  4  1  0
  4 17  1  0
  4 18  1  0
 16 19  1  0
 16 20  1  0
 17 21  1  0
 17 22  1  0
 17 23  1  0
 18 24  1  0
 18 25  1  0
 18 26  1  0
  3 27  1  0
M  END
>  <SMILES>  (3) 
CC(C)(N)C(O)c1ccccc1

>  <Molecular Weight>  (3) 
165.2

>  <Substrate_ID>  (3) 
MOL0033

>  <Substrate>  (3) 


>  <Substrate_SMILES>  (3) 
CC(C)(N)Cc1ccccc1

>  <Reaction>  (3) 
benzylic_hydroxylation_(c-CH2-CR),aliphatic hydroxylation

>  <Score>  (3) 
0.1314

>  <Reaction_Score>  (3) 
0.1313

>  <Bond_Score>  (3) 
0.1315

>  <Rank>  (3) 
3

>  <Subtype>  (3) 
2A6, 2E1

>  <Subtype_Scores>  (3) 
[2A6] SOM_score: 0.1085, Reaction_score: 0.1313, Score: 0.1193
[2E1] SOM_score: 0.1215, Reaction_score: 0.1313, Score: 0.1263


$$$$

     RDKit          2D

 27 27  0  0  0  0  0  0  0  0999 V2000
    6.0000   -0.0000    0.0000 N   0  0  0  0  0  0  0  0  0  1  0  0
    6.7500   -1.2990    0.0000 O   0  0  0  0  0  0  0  0  0 12  0  0
    8.2500   -1.2990    0.0000 H   0  0  0  0  0  0  0  0  0  0  0  0
    4.5000    0.0000    0.0000 C   0  0  0  0  0  0  0  0  0 11  0  0
    6.9028    1.1979    0.0000 H   0  0  0  0  0  0  0  0  0  0  0  0
    4.5000   -1.5000    0.0000 C   0  0  0  0  0  0  0  0  0  2  0  0
    4.5000    1.5000    0.0000 C   0  0  0  0  0  0  0  0  0  3  0  0
    3.0000    0.0000    0.0000 C   0  0  0  0  0  0  0  0  0  9  0  0
    4.5000   -3.0000    0.0000 H   0  0  0  0  0  0  0  0  0  0  0  0
    5.9554   -1.8630    0.0000 H   0  0  0  0  0  0  0  0  0  0  0  0
    3.6209   -1.6080    0.0000 H   0  0  0  0  0  0  0  0  0  0  0  0
    4.5000    3.0000    0.0000 H   0  0  0  0  0  0  0  0  0  0  0  0
    5.9888    1.6828    0.0000 H   0  0  0  0  0  0  0  0  0  0  0  0
    3.6209    1.6080    0.0000 H   0  0  0  0  0  0  0  0  0  0  0  0
    1.5000    0.0000    0.0000 C   0  0  0  0  0  0  0  0  0 10  0  0
    2.8920   -0.8791    0.0000 H   0  0  0  0  0  0  0  0  0  0  0  0
    2.8920    0.8791    0.0000 H   0  0  0  0  0  0  0  0  0  0  0  0
    0.7500   -1.2990    0.0000 C   0  0  0  0  0  0  0  0  0  7  0  0
    0.7500    1.2990    0.0000 C   0  0  0  0  0  0  0  0  0  8  0  0
   -0.7500   -1.2990    0.0000 C   0  0  0  0  0  0  0  0  0  5  0  0
    1.5000   -2.5981    0.0000 H   0  0  0  0  0  0  0  0  0  0  0  0
   -0.7500    1.2990    0.0000 C   0  0  0  0  0  0  0  0  0  6  0  0
    1.5000    2.5981    0.0000 H   0  0  0  0  0  0  0  0  0  0  0  0
   -1.5000    0.0000    0.0000 C   0  0  0  0  0  0  0  0  0  4  0  0
   -1.5000   -2.5981    0.0000 H   0  0  0  0  0  0  0  0  0  0  0  0
   -1.5000    2.5981    0.0000 H   0  0  0  0  0  0  0  0  0  0  0  0
   -3.0000    0.0000    0.0000 H   0  0  0  0  0  0  0  0  0  0  0  0
  1  2  1  0
  2  3  1  0
  1  4  1  0
  1  5  1  0
  4  6  1  0
  4  7  1  0
  4  8  1  0
  6  9  1  0
  6 10  1  0
  6 11  1  0
  7 12  1  0
  7 13  1  0
  7 14  1  0
  8 15  1  0
  8 16  1  0
  8 17  1  0
 15 18  2  0
 19 15  1  0
 18 20  1  0
 18 21  1  0
 22 19  2  0
 19 23  1  0
 20 24  2  0
 20 25  1  0
 24 22  1  0
 22 26  1  0
 24 27  1  0
M  END
>  <SMILES>  (4) 
CC(C)(Cc1ccccc1)NO

>  <Molecular Weight>  (4) 
165.2

>  <Substrate_ID>  (4) 
MOL0033

>  <Substrate>  (4) 


>  <Substrate_SMILES>  (4) 
CC(C)(N)Cc1ccccc1

>  <Reaction>  (4) 
amine hydroxylation

>  <Score>  (4) 
0.0684

>  <Reaction_Score>  (4) 
0.0162

>  <Bond_Score>  (4) 
0.2886

>  <Rank>  (4) 
4

>  <Subtype>  (4) 
2A6, 2E1

>  <Subtype_Scores>  (4) 
[2A6] SOM_score: 0.2139, Reaction_score: 0.0162, Score: 0.0589
[2E1] SOM_score: 0.2886, Reaction_score: 0.0162, Score: 0.0684


$$$$
