
     RDKit          2D

 60 64  0  0  0  0  0  0  0  0999 V2000
   -0.0967    5.1517    0.0000 C   0  0  0  0  0  0  0  0  0 35  0  0
   -1.2114    6.1554    0.0000 O   0  0  0  0  0  0  0  0  0  4  0  0
    1.3299    5.6152    0.0000 C   0  0  0  0  0  0  0  0  0 32  0  0
   -0.4086    3.6844    0.0000 C   0  0  0  0  0  0  0  0  0 34  0  0
    2.4446    4.6115    0.0000 C   0  0  0  0  0  0  0  0  0 16  0  0
    1.6418    7.0824    0.0000 O   0  0  0  0  0  0  0  0  0  3  0  0
   -1.8351    3.2209    0.0000 N   0  0  0  0  0  0  0  0  0  6  0  0
    0.7062    2.6807    0.0000 C   0  0  0  0  0  0  0  0  0 33  0  0
    2.1328    3.1443    0.0000 C   0  0  0  0  0  0  0  0  0 17  0  0
    3.8712    5.0750    0.0000 H   0  0  0  0  0  0  0  0  0  0  0  0
    3.0684    7.5459    0.0000 C   0  0  0  0  0  0  0  0  0 22  0  0
   -2.1470    1.7537    0.0000 C   0  0  0  0  0  0  0  0  0 28  0  0
    0.3943    1.2135    0.0000 C   0  0  0  0  0  0  0  0  0 29  0  0
    3.2475    2.1406    0.0000 H   0  0  0  0  0  0  0  0  0  0  0  0
    4.4949    8.0095    0.0000 C   0  0  0  0  0  0  0  0  0 18  0  0
    3.5319    6.1194    0.0000 H   0  0  0  0  0  0  0  0  0  0  0  0
    2.6048    8.9725    0.0000 H   0  0  0  0  0  0  0  0  0  0  0  0
   -3.5736    1.2902    0.0000 N   0  0  0  0  0  0  0  0  0 10  0  0
   -1.0323    0.7500    0.0000 N   0  0  0  0  0  0  0  0  0 12  0  0
    1.2760    0.0000    0.0000 N   0  0  0  0  0  0  0  0  0  7  0  0
    5.9215    8.4730    0.0000 C   0  0  0  0  0  0  0  0  0 23  0  0
    4.9585    6.5829    0.0000 H   0  0  0  0  0  0  0  0  0  0  0  0
    4.0314    9.4360    0.0000 H   0  0  0  0  0  0  0  0  0  0  0  0
   -4.6883    2.2939    0.0000 C   0  0  0  0  0  0  0  0  0 27  0  0
   -3.8855   -0.1771    0.0000 H   0  0  0  0  0  0  0  0  0  0  0  0
   -1.0323   -0.7500    0.0000 C   0  0  0  0  0  0  0  0  0 26  0  0
    0.3943   -1.2135    0.0000 C   0  0  0  0  0  0  0  0  0 19  0  0
    7.3481    8.9365    0.0000 N   0  0  0  0  0  0  0  0  0 11  0  0
    5.2876    9.8324    0.0000 H   0  0  0  0  0  0  0  0  0  0  0  0
    6.2077    7.0005    0.0000 H   0  0  0  0  0  0  0  0  0  0  0  0
   -4.3764    3.7611    0.0000 O   0  0  0  0  0  0  0  0  0  1  0  0
   -6.1149    1.8303    0.0000 C   0  0  0  0  0  0  0  0  0 30  0  0
   -1.3442   -2.2172    0.0000 H   0  0  0  0  0  0  0  0  0  0  0  0
   -2.5241   -0.5932    0.0000 H   0  0  0  0  0  0  0  0  0  0  0  0
    1.6933   -1.9635    0.0000 H   0  0  0  0  0  0  0  0  0  0  0  0
   -0.2158   -2.5838    0.0000 H   0  0  0  0  0  0  0  0  0  0  0  0
    8.4628    7.9328    0.0000 C   0  0  0  0  0  0  0  0  0 24  0  0
    7.6600   10.4037    0.0000 C   0  0  0  0  0  0  0  0  0 25  0  0
   -7.2296    2.8340    0.0000 C   0  0  0  0  0  0  0  0  0 14  0  0
   -6.4268    0.3631    0.0000 C   0  0  0  0  0  0  0  0  0 15  0  0
    9.8894    8.3963    0.0000 C   0  0  0  0  0  0  0  0  0 20  0  0
    9.1670    6.6084    0.0000 H   0  0  0  0  0  0  0  0  0  0  0  0
    7.4022    6.8721    0.0000 H   0  0  0  0  0  0  0  0  0  0  0  0
    9.0866   10.8673    0.0000 C   0  0  0  0  0  0  0  0  0 21  0  0
    6.1784   10.6384    0.0000 H   0  0  0  0  0  0  0  0  0  0  0  0
    7.4512   11.8891    0.0000 H   0  0  0  0  0  0  0  0  0  0  0  0
   -8.6562    2.3705    0.0000 N   0  0  0  0  0  0  0  0  0  8  0  0
   -6.9177    4.3013    0.0000 H   0  0  0  0  0  0  0  0  0  0  0  0
   -7.8533   -0.1004    0.0000 N   0  0  0  0  0  0  0  0  0  9  0  0
   -5.3120   -0.6406    0.0000 H   0  0  0  0  0  0  0  0  0  0  0  0
   10.2013    9.8636    0.0000 O   0  0  0  0  0  0  0  0  0  2  0  0
   11.3885    8.3440    0.0000 H   0  0  0  0  0  0  0  0  0  0  0  0
   10.0982    6.9109    0.0000 H   0  0  0  0  0  0  0  0  0  0  0  0
    8.3824   12.1917    0.0000 H   0  0  0  0  0  0  0  0  0  0  0  0
   10.2686   11.7908    0.0000 H   0  0  0  0  0  0  0  0  0  0  0  0
   -8.9681    0.9033    0.0000 C   0  0  0  0  0  0  0  0  0 31  0  0
  -10.3946    0.4398    0.0000 N   0  0  0  0  0  0  0  0  0  5  0  0
  -11.5094    1.4435    0.0000 H   0  0  0  0  0  0  0  0  0  0  0  0
  -10.7065   -1.0275    0.0000 H   0  0  0  0  0  0  0  0  0  0  0  0
   -0.8995    7.6226    0.0000 H   0  0  0  0  0  0  0  0  0  0  0  0
  1  2  1  0
  3  1  2  0
  1  4  1  0
  5  3  1  0
  3  6  1  0
  7  4  1  0
  4  8  2  0
  9  5  2  0
  5 10  1  0
  6 11  1  0
 12  7  2  0
  8  9  1  0
  8 13  1  0
  9 14  1  0
 11 15  1  0
 11 16  1  0
 11 17  1  0
 18 12  1  0
 19 12  1  0
 13 20  2  0
 19 13  1  0
 15 21  1  0
 15 22  1  0
 15 23  1  0
 24 18  1  0
 18 25  1  0
 26 19  1  0
 20 27  1  0
 21 28  1  0
 21 29  1  0
 21 30  1  0
 31 24  2  0
 24 32  1  0
 27 26  1  0
 26 33  1  0
 26 34  1  0
 27 35  1  0
 27 36  1  0
 28 37  1  0
 38 28  1  0
 32 39  2  0
 40 32  1  0
 37 41  1  0
 37 42  1  0
 37 43  1  0
 44 38  1  0
 38 45  1  0
 38 46  1  0
 39 47  1  0
 39 48  1  0
 49 40  2  0
 40 50  1  0
 41 51  1  0
 41 52  1  0
 41 53  1  0
 51 44  1  0
 44 54  1  0
 44 55  1  0
 47 56  2  0
 56 49  1  0
 56 57  1  0
 57 58  1  0
 57 59  1  0
  2 60  1  0
M  END
>  <SMILES>  (1) 
Nc1ncc(C(=O)NC2=Nc3c(ccc(OCCCN4CCOCC4)c3O)C3=NCCN23)cn1

>  <Molecular Weight>  (1) 
466.5

>  <Substrate_ID>  (1) 
MOL0018

>  <Substrate>  (1) 


>  <Substrate_SMILES>  (1) 
COc1c(OCCCN2CCOCC2)ccc2c1N=C(NC(=O)c1cnc(N)nc1)N1CCN=C21

>  <Reaction>  (1) 
O-demethylation

>  <Score>  (1) 
0.373

>  <Reaction_Score>  (1) 
0.4299

>  <Bond_Score>  (1) 
0.3237

>  <Rank>  (1) 
1

>  <Subtype>  (1) 
2C8, 2D6, 3A4

>  <Subtype_Scores>  (1) 
[2C8] SOM_score: 0.1477, Reaction_score: 0.4299, Score: 0.2520
[2D6] SOM_score: 0.2430, Reaction_score: 0.4299, Score: 0.3232
[3A4] SOM_score: 0.3237, Reaction_score: 0.4299, Score: 0.3730


$$$$

     RDKit          2D

 51 54  0  0  0  0  0  0  0  0999 V2000
    7.3481    8.9365    0.0000 O   0  0  0  0  0  0  0  0  0 36  0  0
    5.9215    8.4730    0.0000 C   0  0  0  0  0  0  0  0  0 23  0  0
    4.4949    8.0095    0.0000 C   0  0  0  0  0  0  0  0  0 18  0  0
    5.4580    9.8996    0.0000 H   0  0  0  0  0  0  0  0  0  0  0  0
    6.3850    7.0464    0.0000 H   0  0  0  0  0  0  0  0  0  0  0  0
    3.0684    7.5459    0.0000 C   0  0  0  0  0  0  0  0  0 22  0  0
    4.0314    9.4360    0.0000 H   0  0  0  0  0  0  0  0  0  0  0  0
    4.9585    6.5829    0.0000 H   0  0  0  0  0  0  0  0  0  0  0  0
    1.6418    7.0824    0.0000 O   0  0  0  0  0  0  0  0  0  3  0  0
    3.5319    6.1194    0.0000 H   0  0  0  0  0  0  0  0  0  0  0  0
    2.6048    8.9725    0.0000 H   0  0  0  0  0  0  0  0  0  0  0  0
    1.3299    5.6152    0.0000 C   0  0  0  0  0  0  0  0  0 32  0  0
    2.4446    4.6115    0.0000 C   0  0  0  0  0  0  0  0  0 16  0  0
   -0.0967    5.1517    0.0000 C   0  0  0  0  0  0  0  0  0 35  0  0
    2.1328    3.1443    0.0000 C   0  0  0  0  0  0  0  0  0 17  0  0
    3.8712    5.0750    0.0000 H   0  0  0  0  0  0  0  0  0  0  0  0
   -1.2114    6.1554    0.0000 O   0  0  0  0  0  0  0  0  0  4  0  0
   -0.4086    3.6844    0.0000 C   0  0  0  0  0  0  0  0  0 34  0  0
    0.7062    2.6807    0.0000 C   0  0  0  0  0  0  0  0  0 33  0  0
    3.2475    2.1406    0.0000 H   0  0  0  0  0  0  0  0  0  0  0  0
   -0.8995    7.6226    0.0000 C   0  0  0  0  0  0  0  0  0 13  0  0
   -1.8351    3.2209    0.0000 N   0  0  0  0  0  0  0  0  0  6  0  0
    0.3943    1.2135    0.0000 C   0  0  0  0  0  0  0  0  0 29  0  0
   -0.5877    9.0898    0.0000 H   0  0  0  0  0  0  0  0  0  0  0  0
   -2.3668    7.9344    0.0000 H   0  0  0  0  0  0  0  0  0  0  0  0
    0.5677    7.3107    0.0000 H   0  0  0  0  0  0  0  0  0  0  0  0
   -2.1470    1.7537    0.0000 C   0  0  0  0  0  0  0  0  0 28  0  0
    1.2760    0.0000    0.0000 N   0  0  0  0  0  0  0  0  0  7  0  0
   -1.0323    0.7500    0.0000 N   0  0  0  0  0  0  0  0  0 12  0  0
   -3.5736    1.2902    0.0000 N   0  0  0  0  0  0  0  0  0 10  0  0
    0.3943   -1.2135    0.0000 C   0  0  0  0  0  0  0  0  0 19  0  0
   -1.0323   -0.7500    0.0000 C   0  0  0  0  0  0  0  0  0 26  0  0
   -4.6883    2.2939    0.0000 C   0  0  0  0  0  0  0  0  0 27  0  0
   -3.8855   -0.1771    0.0000 H   0  0  0  0  0  0  0  0  0  0  0  0
    1.6933   -1.9635    0.0000 H   0  0  0  0  0  0  0  0  0  0  0  0
   -0.2158   -2.5838    0.0000 H   0  0  0  0  0  0  0  0  0  0  0  0
   -1.3442   -2.2172    0.0000 H   0  0  0  0  0  0  0  0  0  0  0  0
   -2.5241   -0.5932    0.0000 H   0  0  0  0  0  0  0  0  0  0  0  0
   -4.3764    3.7611    0.0000 O   0  0  0  0  0  0  0  0  0  1  0  0
   -6.1149    1.8303    0.0000 C   0  0  0  0  0  0  0  0  0 30  0  0
   -7.2296    2.8340    0.0000 C   0  0  0  0  0  0  0  0  0 14  0  0
   -6.4268    0.3631    0.0000 C   0  0  0  0  0  0  0  0  0 15  0  0
   -8.6562    2.3705    0.0000 N   0  0  0  0  0  0  0  0  0  8  0  0
   -6.9177    4.3013    0.0000 H   0  0  0  0  0  0  0  0  0  0  0  0
   -7.8533   -0.1004    0.0000 N   0  0  0  0  0  0  0  0  0  9  0  0
   -5.3120   -0.6406    0.0000 H   0  0  0  0  0  0  0  0  0  0  0  0
   -8.9681    0.9033    0.0000 C   0  0  0  0  0  0  0  0  0 31  0  0
  -10.3946    0.4398    0.0000 N   0  0  0  0  0  0  0  0  0  5  0  0
  -11.5094    1.4435    0.0000 H   0  0  0  0  0  0  0  0  0  0  0  0
  -10.7065   -1.0275    0.0000 H   0  0  0  0  0  0  0  0  0  0  0  0
    8.4628    7.9328    0.0000 H   0  0  0  0  0  0  0  0  0  0  0  0
  1  2  1  0
  3  2  1  0
  2  4  1  0
  2  5  1  0
  6  3  1  0
  3  7  1  0
  3  8  1  0
  9  6  1  0
  6 10  1  0
  6 11  1  0
 12  9  1  0
 13 12  2  0
 12 14  1  0
 15 13  1  0
 13 16  1  0
 14 17  1  0
 14 18  2  0
 19 15  2  0
 15 20  1  0
 17 21  1  0
 22 18  1  0
 18 19  1  0
 19 23  1  0
 21 24  1  0
 21 25  1  0
 21 26  1  0
 27 22  2  0
 23 28  2  0
 29 23  1  0
 30 27  1  0
 29 27  1  0
 28 31  1  0
 32 29  1  0
 33 30  1  0
 30 34  1  0
 31 32  1  0
 31 35  1  0
 31 36  1  0
 32 37  1  0
 32 38  1  0
 39 33  2  0
 33 40  1  0
 40 41  2  0
 42 40  1  0
 41 43  1  0
 41 44  1  0
 45 42  2  0
 42 46  1  0
 43 47  2  0
 47 45  1  0
 47 48  1  0
 48 49  1  0
 48 50  1  0
  1 51  1  0
M  END
>  <SMILES>  (2) 
COc1c(OCCCO)ccc2c1N=C(NC(=O)c1cnc(N)nc1)N1CCN=C21

>  <Molecular Weight>  (2) 
411.4

>  <Substrate_ID>  (2) 
MOL0018

>  <Substrate>  (2) 


>  <Substrate_SMILES>  (2) 
COc1c(OCCCN2CCOCC2)ccc2c1N=C(NC(=O)c1cnc(N)nc1)N1CCN=C21

>  <Reaction>  (2) 
N-dealkylation_(tertiaryN-CH2-alkyl)

>  <Score>  (2) 
0.3691

>  <Reaction_Score>  (2) 
0.3251

>  <Bond_Score>  (2) 
0.419

>  <Rank>  (2) 
2

>  <Subtype>  (2) 
2C8, 3A4

>  <Subtype_Scores>  (2) 
[2C8] SOM_score: 0.1031, Reaction_score: 0.3251, Score: 0.1831
[3A4] SOM_score: 0.4190, Reaction_score: 0.3251, Score: 0.3691


$$$$

     RDKit          2D

 49 52  0  0  0  0  0  0  0  0999 V2000
    5.9215    8.4730    0.0000 C   0  0  0  0  0  0  0  0  0 23  0  0
    6.2334    9.9402    0.0000 O   0  0  0  0  0  0  0  0  0 36  0  0
    4.4949    8.0095    0.0000 C   0  0  0  0  0  0  0  0  0 18  0  0
    7.0362    7.4693    0.0000 H   0  0  0  0  0  0  0  0  0  0  0  0
    3.0684    7.5459    0.0000 C   0  0  0  0  0  0  0  0  0 22  0  0
    4.0314    9.4360    0.0000 H   0  0  0  0  0  0  0  0  0  0  0  0
    4.9585    6.5829    0.0000 H   0  0  0  0  0  0  0  0  0  0  0  0
    1.6418    7.0824    0.0000 O   0  0  0  0  0  0  0  0  0  3  0  0
    3.5319    6.1194    0.0000 H   0  0  0  0  0  0  0  0  0  0  0  0
    2.6048    8.9725    0.0000 H   0  0  0  0  0  0  0  0  0  0  0  0
    1.3299    5.6152    0.0000 C   0  0  0  0  0  0  0  0  0 32  0  0
    2.4446    4.6115    0.0000 C   0  0  0  0  0  0  0  0  0 16  0  0
   -0.0967    5.1517    0.0000 C   0  0  0  0  0  0  0  0  0 35  0  0
    2.1328    3.1443    0.0000 C   0  0  0  0  0  0  0  0  0 17  0  0
    3.8712    5.0750    0.0000 H   0  0  0  0  0  0  0  0  0  0  0  0
   -1.2114    6.1554    0.0000 O   0  0  0  0  0  0  0  0  0  4  0  0
   -0.4086    3.6844    0.0000 C   0  0  0  0  0  0  0  0  0 34  0  0
    0.7062    2.6807    0.0000 C   0  0  0  0  0  0  0  0  0 33  0  0
    3.2475    2.1406    0.0000 H   0  0  0  0  0  0  0  0  0  0  0  0
   -0.8995    7.6226    0.0000 C   0  0  0  0  0  0  0  0  0 13  0  0
   -1.8351    3.2209    0.0000 N   0  0  0  0  0  0  0  0  0  6  0  0
    0.3943    1.2135    0.0000 C   0  0  0  0  0  0  0  0  0 29  0  0
   -0.5877    9.0898    0.0000 H   0  0  0  0  0  0  0  0  0  0  0  0
   -2.3668    7.9344    0.0000 H   0  0  0  0  0  0  0  0  0  0  0  0
    0.5677    7.3107    0.0000 H   0  0  0  0  0  0  0  0  0  0  0  0
   -2.1470    1.7537    0.0000 C   0  0  0  0  0  0  0  0  0 28  0  0
    1.2760    0.0000    0.0000 N   0  0  0  0  0  0  0  0  0  7  0  0
   -1.0323    0.7500    0.0000 N   0  0  0  0  0  0  0  0  0 12  0  0
   -3.5736    1.2902    0.0000 N   0  0  0  0  0  0  0  0  0 10  0  0
    0.3943   -1.2135    0.0000 C   0  0  0  0  0  0  0  0  0 19  0  0
   -1.0323   -0.7500    0.0000 C   0  0  0  0  0  0  0  0  0 26  0  0
   -4.6883    2.2939    0.0000 C   0  0  0  0  0  0  0  0  0 27  0  0
   -3.8855   -0.1771    0.0000 H   0  0  0  0  0  0  0  0  0  0  0  0
    1.6933   -1.9635    0.0000 H   0  0  0  0  0  0  0  0  0  0  0  0
   -0.2158   -2.5838    0.0000 H   0  0  0  0  0  0  0  0  0  0  0  0
   -1.3442   -2.2172    0.0000 H   0  0  0  0  0  0  0  0  0  0  0  0
   -2.5241   -0.5932    0.0000 H   0  0  0  0  0  0  0  0  0  0  0  0
   -4.3764    3.7611    0.0000 O   0  0  0  0  0  0  0  0  0  1  0  0
   -6.1149    1.8303    0.0000 C   0  0  0  0  0  0  0  0  0 30  0  0
   -7.2296    2.8340    0.0000 C   0  0  0  0  0  0  0  0  0 14  0  0
   -6.4268    0.3631    0.0000 C   0  0  0  0  0  0  0  0  0 15  0  0
   -8.6562    2.3705    0.0000 N   0  0  0  0  0  0  0  0  0  8  0  0
   -6.9177    4.3013    0.0000 H   0  0  0  0  0  0  0  0  0  0  0  0
   -7.8533   -0.1004    0.0000 N   0  0  0  0  0  0  0  0  0  9  0  0
   -5.3120   -0.6406    0.0000 H   0  0  0  0  0  0  0  0  0  0  0  0
   -8.9681    0.9033    0.0000 C   0  0  0  0  0  0  0  0  0 31  0  0
  -10.3946    0.4398    0.0000 N   0  0  0  0  0  0  0  0  0  5  0  0
  -11.5094    1.4435    0.0000 H   0  0  0  0  0  0  0  0  0  0  0  0
  -10.7065   -1.0275    0.0000 H   0  0  0  0  0  0  0  0  0  0  0  0
  1  2  2  0
  3  1  1  0
  1  4  1  0
  5  3  1  0
  3  6  1  0
  3  7  1  0
  8  5  1  0
  5  9  1  0
  5 10  1  0
 11  8  1  0
 12 11  2  0
 11 13  1  0
 14 12  1  0
 12 15  1  0
 13 16  1  0
 13 17  2  0
 18 14  2  0
 14 19  1  0
 16 20  1  0
 21 17  1  0
 17 18  1  0
 18 22  1  0
 20 23  1  0
 20 24  1  0
 20 25  1  0
 26 21  2  0
 22 27  2  0
 28 22  1  0
 29 26  1  0
 28 26  1  0
 27 30  1  0
 31 28  1  0
 32 29  1  0
 29 33  1  0
 30 31  1  0
 30 34  1  0
 30 35  1  0
 31 36  1  0
 31 37  1  0
 38 32  2  0
 32 39  1  0
 39 40  2  0
 41 39  1  0
 40 42  1  0
 40 43  1  0
 44 41  2  0
 41 45  1  0
 42 46  2  0
 46 44  1  0
 46 47  1  0
 47 48  1  0
 47 49  1  0
M  END
>  <SMILES>  (3) 
COc1c(OCCC=O)ccc2c1N=C(NC(=O)c1cnc(N)nc1)N1CCN=C21

>  <Molecular Weight>  (3) 
409.4

>  <Substrate_ID>  (3) 
MOL0018

>  <Substrate>  (3) 


>  <Substrate_SMILES>  (3) 
COc1c(OCCCN2CCOCC2)ccc2c1N=C(NC(=O)c1cnc(N)nc1)N1CCN=C21

>  <Reaction>  (3) 
N-dealkylation_(hetero_ring)

>  <Score>  (3) 
0.3691

>  <Reaction_Score>  (3) 
0.3251

>  <Bond_Score>  (3) 
0.419

>  <Rank>  (3) 
2

>  <Subtype>  (3) 
2C8, 3A4

>  <Subtype_Scores>  (3) 
[2C8] SOM_score: 0.1031, Reaction_score: 0.3251, Score: 0.1831
[3A4] SOM_score: 0.4190, Reaction_score: 0.3251, Score: 0.3691


$$$$

     RDKit          2D

 64 68  0  0  0  0  0  0  0  0999 V2000
    9.0866   10.8673    0.0000 C   0  0  0  0  0  0  0  0  0 20  0  0
    7.6600   10.4037    0.0000 C   0  0  0  0  0  0  0  0  0 24  0  0
    7.4512   11.8891    0.0000 O   0  0  0  0  0  0  0  0  0 36  0  0
    7.3481    8.9365    0.0000 N   0  0  0  0  0  0  0  0  0 11  0  0
   10.2013    9.8636    0.0000 O   0  0  0  0  0  0  0  0  0  2  0  0
   10.2686   11.7908    0.0000 H   0  0  0  0  0  0  0  0  0  0  0  0
    8.3824   12.1917    0.0000 H   0  0  0  0  0  0  0  0  0  0  0  0
    9.8894    8.3963    0.0000 C   0  0  0  0  0  0  0  0  0 21  0  0
    8.4628    7.9328    0.0000 C   0  0  0  0  0  0  0  0  0 25  0  0
   10.0982    6.9109    0.0000 H   0  0  0  0  0  0  0  0  0  0  0  0
   11.3885    8.3440    0.0000 H   0  0  0  0  0  0  0  0  0  0  0  0
    7.4022    6.8721    0.0000 H   0  0  0  0  0  0  0  0  0  0  0  0
    9.1670    6.6084    0.0000 H   0  0  0  0  0  0  0  0  0  0  0  0
    6.1784   10.6384    0.0000 H   0  0  0  0  0  0  0  0  0  0  0  0
    5.9215    8.4730    0.0000 C   0  0  0  0  0  0  0  0  0 23  0  0
    4.4949    8.0095    0.0000 C   0  0  0  0  0  0  0  0  0 18  0  0
    5.2876    9.8324    0.0000 H   0  0  0  0  0  0  0  0  0  0  0  0
    6.2077    7.0005    0.0000 H   0  0  0  0  0  0  0  0  0  0  0  0
    3.0684    7.5459    0.0000 C   0  0  0  0  0  0  0  0  0 22  0  0
    4.0314    9.4360    0.0000 H   0  0  0  0  0  0  0  0  0  0  0  0
    4.9585    6.5829    0.0000 H   0  0  0  0  0  0  0  0  0  0  0  0
    1.6418    7.0824    0.0000 O   0  0  0  0  0  0  0  0  0  3  0  0
    3.5319    6.1194    0.0000 H   0  0  0  0  0  0  0  0  0  0  0  0
    2.6048    8.9725    0.0000 H   0  0  0  0  0  0  0  0  0  0  0  0
    1.3299    5.6152    0.0000 C   0  0  0  0  0  0  0  0  0 32  0  0
    2.4446    4.6115    0.0000 C   0  0  0  0  0  0  0  0  0 16  0  0
   -0.0967    5.1517    0.0000 C   0  0  0  0  0  0  0  0  0 35  0  0
    2.1328    3.1443    0.0000 C   0  0  0  0  0  0  0  0  0 17  0  0
    3.8712    5.0750    0.0000 H   0  0  0  0  0  0  0  0  0  0  0  0
   -1.2114    6.1554    0.0000 O   0  0  0  0  0  0  0  0  0  4  0  0
   -0.4086    3.6844    0.0000 C   0  0  0  0  0  0  0  0  0 34  0  0
    0.7062    2.6807    0.0000 C   0  0  0  0  0  0  0  0  0 33  0  0
    3.2475    2.1406    0.0000 H   0  0  0  0  0  0  0  0  0  0  0  0
   -0.8995    7.6226    0.0000 C   0  0  0  0  0  0  0  0  0 13  0  0
   -1.8351    3.2209    0.0000 N   0  0  0  0  0  0  0  0  0  6  0  0
    0.3943    1.2135    0.0000 C   0  0  0  0  0  0  0  0  0 29  0  0
   -0.5877    9.0898    0.0000 H   0  0  0  0  0  0  0  0  0  0  0  0
   -2.3668    7.9344    0.0000 H   0  0  0  0  0  0  0  0  0  0  0  0
    0.5677    7.3107    0.0000 H   0  0  0  0  0  0  0  0  0  0  0  0
   -2.1470    1.7537    0.0000 C   0  0  0  0  0  0  0  0  0 28  0  0
    1.2760    0.0000    0.0000 N   0  0  0  0  0  0  0  0  0  7  0  0
   -1.0323    0.7500    0.0000 N   0  0  0  0  0  0  0  0  0 12  0  0
   -3.5736    1.2902    0.0000 N   0  0  0  0  0  0  0  0  0 10  0  0
    0.3943   -1.2135    0.0000 C   0  0  0  0  0  0  0  0  0 19  0  0
   -1.0323   -0.7500    0.0000 C   0  0  0  0  0  0  0  0  0 26  0  0
   -4.6883    2.2939    0.0000 C   0  0  0  0  0  0  0  0  0 27  0  0
   -3.8855   -0.1771    0.0000 H   0  0  0  0  0  0  0  0  0  0  0  0
    1.6933   -1.9635    0.0000 H   0  0  0  0  0  0  0  0  0  0  0  0
   -0.2158   -2.5838    0.0000 H   0  0  0  0  0  0  0  0  0  0  0  0
   -1.3442   -2.2172    0.0000 H   0  0  0  0  0  0  0  0  0  0  0  0
   -2.5241   -0.5932    0.0000 H   0  0  0  0  0  0  0  0  0  0  0  0
   -4.3764    3.7611    0.0000 O   0  0  0  0  0  0  0  0  0  1  0  0
   -6.1149    1.8303    0.0000 C   0  0  0  0  0  0  0  0  0 30  0  0
   -7.2296    2.8340    0.0000 C   0  0  0  0  0  0  0  0  0 14  0  0
   -6.4268    0.3631    0.0000 C   0  0  0  0  0  0  0  0  0 15  0  0
   -8.6562    2.3705    0.0000 N   0  0  0  0  0  0  0  0  0  8  0  0
   -6.9177    4.3013    0.0000 H   0  0  0  0  0  0  0  0  0  0  0  0
   -7.8533   -0.1004    0.0000 N   0  0  0  0  0  0  0  0  0  9  0  0
   -5.3120   -0.6406    0.0000 H   0  0  0  0  0  0  0  0  0  0  0  0
   -8.9681    0.9033    0.0000 C   0  0  0  0  0  0  0  0  0 31  0  0
  -10.3946    0.4398    0.0000 N   0  0  0  0  0  0  0  0  0  5  0  0
  -11.5094    1.4435    0.0000 H   0  0  0  0  0  0  0  0  0  0  0  0
  -10.7065   -1.0275    0.0000 H   0  0  0  0  0  0  0  0  0  0  0  0
    6.0604   12.4510    0.0000 H   0  0  0  0  0  0  0  0  0  0  0  0
  1  2  1  0
  2  3  1  0
  2  4  1  0
  1  5  1  0
  1  6  1  0
  1  7  1  0
  5  8  1  0
  8  9  1  0
  8 10  1  0
  8 11  1  0
  9  4  1  0
  9 12  1  0
  9 13  1  0
  2 14  1  0
 15  4  1  0
 16 15  1  0
 15 17  1  0
 15 18  1  0
 19 16  1  0
 16 20  1  0
 16 21  1  0
 22 19  1  0
 19 23  1  0
 19 24  1  0
 25 22  1  0
 26 25  2  0
 25 27  1  0
 28 26  1  0
 26 29  1  0
 27 30  1  0
 27 31  2  0
 32 28  2  0
 28 33  1  0
 30 34  1  0
 35 31  1  0
 31 32  1  0
 32 36  1  0
 34 37  1  0
 34 38  1  0
 34 39  1  0
 40 35  2  0
 36 41  2  0
 42 36  1  0
 43 40  1  0
 42 40  1  0
 41 44  1  0
 45 42  1  0
 46 43  1  0
 43 47  1  0
 44 45  1  0
 44 48  1  0
 44 49  1  0
 45 50  1  0
 45 51  1  0
 52 46  2  0
 46 53  1  0
 53 54  2  0
 55 53  1  0
 54 56  1  0
 54 57  1  0
 58 55  2  0
 55 59  1  0
 56 60  2  0
 60 58  1  0
 60 61  1  0
 61 62  1  0
 61 63  1  0
  3 64  1  0
M  END
>  <SMILES>  (4) 
COc1c(OCCCN2CCOCC2O)ccc2c1N=C(NC(=O)c1cnc(N)nc1)N1CCN=C21

>  <Molecular Weight>  (4) 
496.5

>  <Substrate_ID>  (4) 
MOL0018

>  <Substrate>  (4) 


>  <Substrate_SMILES>  (4) 
COc1c(OCCCN2CCOCC2)ccc2c1N=C(NC(=O)c1cnc(N)nc1)N1CCN=C21

>  <Reaction>  (4) 
aliphatic_hydroxylation_(sec_carbon_next_to_SP2,in_a_ring),aliphatic hydroxylation

>  <Score>  (4) 
0.2568

>  <Reaction_Score>  (4) 
0.1277

>  <Bond_Score>  (4) 
0.5162

>  <Rank>  (4) 
3

>  <Subtype>  (4) 
2C8, 2D6, 3A4

>  <Subtype_Scores>  (4) 
[2C8] SOM_score: 0.2787, Reaction_score: 0.1101, Score: 0.1752
[2D6] SOM_score: 0.2515, Reaction_score: 0.1101, Score: 0.1664
[3A4] SOM_score: 0.4932, Reaction_score: 0.1101, Score: 0.2331


$$$$

     RDKit          2D

 62 66  0  0  0  0  0  0  0  0999 V2000
    9.8894    8.3963    0.0000 C   0  0  0  0  0  0  0  0  0 20  0  0
    8.4628    7.9328    0.0000 C   0  0  0  0  0  0  0  0  0 24  0  0
    8.1510    6.4656    0.0000 O   0  0  0  0  0  0  0  0  0 36  0  0
    7.3481    8.9365    0.0000 N   0  0  0  0  0  0  0  0  0 11  0  0
   10.2013    9.8636    0.0000 O   0  0  0  0  0  0  0  0  0  2  0  0
   11.3885    8.3440    0.0000 H   0  0  0  0  0  0  0  0  0  0  0  0
   10.0982    6.9109    0.0000 H   0  0  0  0  0  0  0  0  0  0  0  0
    9.0866   10.8673    0.0000 C   0  0  0  0  0  0  0  0  0 21  0  0
    7.6600   10.4037    0.0000 C   0  0  0  0  0  0  0  0  0 25  0  0
    8.3824   12.1917    0.0000 H   0  0  0  0  0  0  0  0  0  0  0  0
   10.2686   11.7908    0.0000 H   0  0  0  0  0  0  0  0  0  0  0  0
    6.1784   10.6384    0.0000 H   0  0  0  0  0  0  0  0  0  0  0  0
    7.4512   11.8891    0.0000 H   0  0  0  0  0  0  0  0  0  0  0  0
    5.9215    8.4730    0.0000 C   0  0  0  0  0  0  0  0  0 23  0  0
    4.4949    8.0095    0.0000 C   0  0  0  0  0  0  0  0  0 18  0  0
    5.2876    9.8324    0.0000 H   0  0  0  0  0  0  0  0  0  0  0  0
    6.3850    7.0464    0.0000 H   0  0  0  0  0  0  0  0  0  0  0  0
    3.0684    7.5459    0.0000 C   0  0  0  0  0  0  0  0  0 22  0  0
    4.0314    9.4360    0.0000 H   0  0  0  0  0  0  0  0  0  0  0  0
    4.9585    6.5829    0.0000 H   0  0  0  0  0  0  0  0  0  0  0  0
    1.6418    7.0824    0.0000 O   0  0  0  0  0  0  0  0  0  3  0  0
    3.5319    6.1194    0.0000 H   0  0  0  0  0  0  0  0  0  0  0  0
    2.6048    8.9725    0.0000 H   0  0  0  0  0  0  0  0  0  0  0  0
    1.3299    5.6152    0.0000 C   0  0  0  0  0  0  0  0  0 32  0  0
    2.4446    4.6115    0.0000 C   0  0  0  0  0  0  0  0  0 16  0  0
   -0.0967    5.1517    0.0000 C   0  0  0  0  0  0  0  0  0 35  0  0
    2.1328    3.1443    0.0000 C   0  0  0  0  0  0  0  0  0 17  0  0
    3.8712    5.0750    0.0000 H   0  0  0  0  0  0  0  0  0  0  0  0
   -1.2114    6.1554    0.0000 O   0  0  0  0  0  0  0  0  0  4  0  0
   -0.4086    3.6844    0.0000 C   0  0  0  0  0  0  0  0  0 34  0  0
    0.7062    2.6807    0.0000 C   0  0  0  0  0  0  0  0  0 33  0  0
    3.2475    2.1406    0.0000 H   0  0  0  0  0  0  0  0  0  0  0  0
   -0.8995    7.6226    0.0000 C   0  0  0  0  0  0  0  0  0 13  0  0
   -1.8351    3.2209    0.0000 N   0  0  0  0  0  0  0  0  0  6  0  0
    0.3943    1.2135    0.0000 C   0  0  0  0  0  0  0  0  0 29  0  0
   -0.5877    9.0898    0.0000 H   0  0  0  0  0  0  0  0  0  0  0  0
   -2.3668    7.9344    0.0000 H   0  0  0  0  0  0  0  0  0  0  0  0
    0.5677    7.3107    0.0000 H   0  0  0  0  0  0  0  0  0  0  0  0
   -2.1470    1.7537    0.0000 C   0  0  0  0  0  0  0  0  0 28  0  0
    1.2760    0.0000    0.0000 N   0  0  0  0  0  0  0  0  0  7  0  0
   -1.0323    0.7500    0.0000 N   0  0  0  0  0  0  0  0  0 12  0  0
   -3.5736    1.2902    0.0000 N   0  0  0  0  0  0  0  0  0 10  0  0
    0.3943   -1.2135    0.0000 C   0  0  0  0  0  0  0  0  0 19  0  0
   -1.0323   -0.7500    0.0000 C   0  0  0  0  0  0  0  0  0 26  0  0
   -4.6883    2.2939    0.0000 C   0  0  0  0  0  0  0  0  0 27  0  0
   -3.8855   -0.1771    0.0000 H   0  0  0  0  0  0  0  0  0  0  0  0
    1.6933   -1.9635    0.0000 H   0  0  0  0  0  0  0  0  0  0  0  0
   -0.2158   -2.5838    0.0000 H   0  0  0  0  0  0  0  0  0  0  0  0
   -1.3442   -2.2172    0.0000 H   0  0  0  0  0  0  0  0  0  0  0  0
   -2.5241   -0.5932    0.0000 H   0  0  0  0  0  0  0  0  0  0  0  0
   -4.3764    3.7611    0.0000 O   0  0  0  0  0  0  0  0  0  1  0  0
   -6.1149    1.8303    0.0000 C   0  0  0  0  0  0  0  0  0 30  0  0
   -7.2296    2.8340    0.0000 C   0  0  0  0  0  0  0  0  0 14  0  0
   -6.4268    0.3631    0.0000 C   0  0  0  0  0  0  0  0  0 15  0  0
   -8.6562    2.3705    0.0000 N   0  0  0  0  0  0  0  0  0  8  0  0
   -6.9177    4.3013    0.0000 H   0  0  0  0  0  0  0  0  0  0  0  0
   -7.8533   -0.1004    0.0000 N   0  0  0  0  0  0  0  0  0  9  0  0
   -5.3120   -0.6406    0.0000 H   0  0  0  0  0  0  0  0  0  0  0  0
   -8.9681    0.9033    0.0000 C   0  0  0  0  0  0  0  0  0 31  0  0
  -10.3946    0.4398    0.0000 N   0  0  0  0  0  0  0  0  0  5  0  0
  -11.5094    1.4435    0.0000 H   0  0  0  0  0  0  0  0  0  0  0  0
  -10.7065   -1.0275    0.0000 H   0  0  0  0  0  0  0  0  0  0  0  0
  1  2  1  0
  2  3  2  0
  2  4  1  0
  1  5  1  0
  1  6  1  0
  1  7  1  0
  5  8  1  0
  8  9  1  0
  8 10  1  0
  8 11  1  0
  9  4  1  0
  9 12  1  0
  9 13  1  0
 14  4  1  0
 15 14  1  0
 14 16  1  0
 14 17  1  0
 18 15  1  0
 15 19  1  0
 15 20  1  0
 21 18  1  0
 18 22  1  0
 18 23  1  0
 24 21  1  0
 25 24  2  0
 24 26  1  0
 27 25  1  0
 25 28  1  0
 26 29  1  0
 26 30  2  0
 31 27  2  0
 27 32  1  0
 29 33  1  0
 34 30  1  0
 30 31  1  0
 31 35  1  0
 33 36  1  0
 33 37  1  0
 33 38  1  0
 39 34  2  0
 35 40  2  0
 41 35  1  0
 42 39  1  0
 41 39  1  0
 40 43  1  0
 44 41  1  0
 45 42  1  0
 42 46  1  0
 43 44  1  0
 43 47  1  0
 43 48  1  0
 44 49  1  0
 44 50  1  0
 51 45  2  0
 45 52  1  0
 52 53  2  0
 54 52  1  0
 53 55  1  0
 53 56  1  0
 57 54  2  0
 54 58  1  0
 55 59  2  0
 59 57  1  0
 59 60  1  0
 60 61  1  0
 60 62  1  0
M  END
>  <SMILES>  (5) 
COc1c(OCCCN2CCOCC2=O)ccc2c1N=C(NC(=O)c1cnc(N)nc1)N1CCN=C21

>  <Molecular Weight>  (5) 
494.5

>  <Substrate_ID>  (5) 
MOL0018

>  <Substrate>  (5) 


>  <Substrate_SMILES>  (5) 
COc1c(OCCCN2CCOCC2)ccc2c1N=C(NC(=O)c1cnc(N)nc1)N1CCN=C21

>  <Reaction>  (5) 
oxidation_(amine_in_a_ring)

>  <Score>  (5) 
0.2568

>  <Reaction_Score>  (5) 
0.1277

>  <Bond_Score>  (5) 
0.5162

>  <Rank>  (5) 
3

>  <Subtype>  (5) 
2C8, 2D6, 3A4

>  <Subtype_Scores>  (5) 
[2C8] SOM_score: 0.2787, Reaction_score: 0.1101, Score: 0.1752
[2D6] SOM_score: 0.2515, Reaction_score: 0.1101, Score: 0.1664
[3A4] SOM_score: 0.4932, Reaction_score: 0.1101, Score: 0.2331


$$$$

     RDKit          2D

 66 69  0  0  0  0  0  0  0  0999 V2000
    9.5775    6.9291    0.0000 C   0  0  0  0  0  0  0  0  0 20  0  0
   10.6923    5.9254    0.0000 O   0  0  0  0  0  0  0  0  0  2  0  0
    8.2837   13.3382    0.0000 O   0  0  0  0  0  0  0  0  0 36  0  0
    7.9718   11.8710    0.0000 C   0  0  0  0  0  0  0  0  0 21  0  0
    8.4628    7.9328    0.0000 C   0  0  0  0  0  0  0  0  0 24  0  0
    8.5738    5.8144    0.0000 H   0  0  0  0  0  0  0  0  0  0  0  0
   10.5812    8.0438    0.0000 H   0  0  0  0  0  0  0  0  0  0  0  0
    7.3481    8.9365    0.0000 N   0  0  0  0  0  0  0  0  0 11  0  0
    7.4591    6.8181    0.0000 H   0  0  0  0  0  0  0  0  0  0  0  0
    9.4665    9.0475    0.0000 H   0  0  0  0  0  0  0  0  0  0  0  0
    5.9215    8.4730    0.0000 C   0  0  0  0  0  0  0  0  0 23  0  0
    7.6600   10.4037    0.0000 C   0  0  0  0  0  0  0  0  0 25  0  0
    4.4949    8.0095    0.0000 C   0  0  0  0  0  0  0  0  0 18  0  0
    5.4580    9.8996    0.0000 H   0  0  0  0  0  0  0  0  0  0  0  0
    6.3850    7.0464    0.0000 H   0  0  0  0  0  0  0  0  0  0  0  0
    6.1928   10.7156    0.0000 H   0  0  0  0  0  0  0  0  0  0  0  0
    9.1272   10.0919    0.0000 H   0  0  0  0  0  0  0  0  0  0  0  0
    3.0684    7.5459    0.0000 C   0  0  0  0  0  0  0  0  0 22  0  0
    4.0314    9.4360    0.0000 H   0  0  0  0  0  0  0  0  0  0  0  0
    4.9585    6.5829    0.0000 H   0  0  0  0  0  0  0  0  0  0  0  0
    1.6418    7.0824    0.0000 O   0  0  0  0  0  0  0  0  0  3  0  0
    3.5319    6.1194    0.0000 H   0  0  0  0  0  0  0  0  0  0  0  0
    2.6048    8.9725    0.0000 H   0  0  0  0  0  0  0  0  0  0  0  0
    1.3299    5.6152    0.0000 C   0  0  0  0  0  0  0  0  0 32  0  0
    2.4446    4.6115    0.0000 C   0  0  0  0  0  0  0  0  0 16  0  0
   -0.0967    5.1517    0.0000 C   0  0  0  0  0  0  0  0  0 35  0  0
    2.1328    3.1443    0.0000 C   0  0  0  0  0  0  0  0  0 17  0  0
    3.8712    5.0750    0.0000 H   0  0  0  0  0  0  0  0  0  0  0  0
   -1.2114    6.1554    0.0000 O   0  0  0  0  0  0  0  0  0  4  0  0
   -0.4086    3.6844    0.0000 C   0  0  0  0  0  0  0  0  0 34  0  0
    0.7062    2.6807    0.0000 C   0  0  0  0  0  0  0  0  0 33  0  0
    3.2475    2.1406    0.0000 H   0  0  0  0  0  0  0  0  0  0  0  0
   -0.8995    7.6226    0.0000 C   0  0  0  0  0  0  0  0  0 13  0  0
   -1.8351    3.2209    0.0000 N   0  0  0  0  0  0  0  0  0  6  0  0
    0.3943    1.2135    0.0000 C   0  0  0  0  0  0  0  0  0 29  0  0
   -0.5877    9.0898    0.0000 H   0  0  0  0  0  0  0  0  0  0  0  0
   -2.3668    7.9344    0.0000 H   0  0  0  0  0  0  0  0  0  0  0  0
    0.5677    7.3107    0.0000 H   0  0  0  0  0  0  0  0  0  0  0  0
   -2.1470    1.7537    0.0000 C   0  0  0  0  0  0  0  0  0 28  0  0
    1.2760    0.0000    0.0000 N   0  0  0  0  0  0  0  0  0  7  0  0
   -1.0323    0.7500    0.0000 N   0  0  0  0  0  0  0  0  0 12  0  0
   -3.5736    1.2902    0.0000 N   0  0  0  0  0  0  0  0  0 10  0  0
    0.3943   -1.2135    0.0000 C   0  0  0  0  0  0  0  0  0 19  0  0
   -1.0323   -0.7500    0.0000 C   0  0  0  0  0  0  0  0  0 26  0  0
   -4.6883    2.2939    0.0000 C   0  0  0  0  0  0  0  0  0 27  0  0
   -3.8855   -0.1771    0.0000 H   0  0  0  0  0  0  0  0  0  0  0  0
    1.6933   -1.9635    0.0000 H   0  0  0  0  0  0  0  0  0  0  0  0
   -0.2158   -2.5838    0.0000 H   0  0  0  0  0  0  0  0  0  0  0  0
   -1.3442   -2.2172    0.0000 H   0  0  0  0  0  0  0  0  0  0  0  0
   -2.5241   -0.5932    0.0000 H   0  0  0  0  0  0  0  0  0  0  0  0
   -4.3764    3.7611    0.0000 O   0  0  0  0  0  0  0  0  0  1  0  0
   -6.1149    1.8303    0.0000 C   0  0  0  0  0  0  0  0  0 30  0  0
   -7.2296    2.8340    0.0000 C   0  0  0  0  0  0  0  0  0 14  0  0
   -6.4268    0.3631    0.0000 C   0  0  0  0  0  0  0  0  0 15  0  0
   -8.6562    2.3705    0.0000 N   0  0  0  0  0  0  0  0  0  8  0  0
   -6.9177    4.3013    0.0000 H   0  0  0  0  0  0  0  0  0  0  0  0
   -7.8533   -0.1004    0.0000 N   0  0  0  0  0  0  0  0  0  9  0  0
   -5.3120   -0.6406    0.0000 H   0  0  0  0  0  0  0  0  0  0  0  0
   -8.9681    0.9033    0.0000 C   0  0  0  0  0  0  0  0  0 31  0  0
  -10.3946    0.4398    0.0000 N   0  0  0  0  0  0  0  0  0  5  0  0
  -11.5094    1.4435    0.0000 H   0  0  0  0  0  0  0  0  0  0  0  0
  -10.7065   -1.0275    0.0000 H   0  0  0  0  0  0  0  0  0  0  0  0
    6.5046   12.1828    0.0000 H   0  0  0  0  0  0  0  0  0  0  0  0
    9.4391   11.5591    0.0000 H   0  0  0  0  0  0  0  0  0  0  0  0
   12.1188    6.3890    0.0000 H   0  0  0  0  0  0  0  0  0  0  0  0
    9.7103   13.8017    0.0000 H   0  0  0  0  0  0  0  0  0  0  0  0
  1  2  1  0
  3  4  1  0
  5  1  1  0
  1  6  1  0
  1  7  1  0
  8  5  1  0
  5  9  1  0
  5 10  1  0
 11  8  1  0
 12  8  1  0
 13 11  1  0
 11 14  1  0
 11 15  1  0
  4 12  1  0
 12 16  1  0
 12 17  1  0
 18 13  1  0
 13 19  1  0
 13 20  1  0
 21 18  1  0
 18 22  1  0
 18 23  1  0
 24 21  1  0
 25 24  2  0
 24 26  1  0
 27 25  1  0
 25 28  1  0
 26 29  1  0
 26 30  2  0
 31 27  2  0
 27 32  1  0
 29 33  1  0
 34 30  1  0
 30 31  1  0
 31 35  1  0
 33 36  1  0
 33 37  1  0
 33 38  1  0
 39 34  2  0
 35 40  2  0
 41 35  1  0
 42 39  1  0
 41 39  1  0
 40 43  1  0
 44 41  1  0
 45 42  1  0
 42 46  1  0
 43 44  1  0
 43 47  1  0
 43 48  1  0
 44 49  1  0
 44 50  1  0
 51 45  2  0
 45 52  1  0
 52 53  2  0
 54 52  1  0
 53 55  1  0
 53 56  1  0
 57 54  2  0
 54 58  1  0
 55 59  2  0
 59 57  1  0
 59 60  1  0
 60 61  1  0
 60 62  1  0
  4 63  1  0
  4 64  1  0
  2 65  1  0
  3 66  1  0
M  END
>  <SMILES>  (6) 
COc1c(OCCCN(CCO)CCO)ccc2c1N=C(NC(=O)c1cnc(N)nc1)N1CCN=C21

>  <Molecular Weight>  (6) 
498.5

>  <Substrate_ID>  (6) 
MOL0018

>  <Substrate>  (6) 


>  <Substrate_SMILES>  (6) 
COc1c(OCCCN2CCOCC2)ccc2c1N=C(NC(=O)c1cnc(N)nc1)N1CCN=C21

>  <Reaction>  (6) 
O-dealkylation_(aliphatic),O-dealkylation_(ether)

>  <Score>  (6) 
0.226

>  <Reaction_Score>  (6) 
0.1954

>  <Bond_Score>  (6) 
0.2615

>  <Rank>  (6) 
4

>  <Subtype>  (6) 
2C8, 3A4

>  <Subtype_Scores>  (6) 
[2C8] SOM_score: 0.0824, Reaction_score: 0.1954, Score: 0.1268
[3A4] SOM_score: 0.2615, Reaction_score: 0.1954, Score: 0.2260


$$$$

     RDKit          2D

 64 67  0  0  0  0  0  0  0  0999 V2000
    7.3481    8.9365    0.0000 N   0  0  0  0  0  0  0  0  0 11  0  0
    7.6600   10.4037    0.0000 H   0  0  0  0  0  0  0  0  0  0  0  0
   13.5454    6.8525    0.0000 C   0  0  0  0  0  0  0  0  0 24  0  0
   13.8573    8.3197    0.0000 O   0  0  0  0  0  0  0  0  0 36  0  0
    5.9215    8.4730    0.0000 C   0  0  0  0  0  0  0  0  0 23  0  0
    8.4628    7.9328    0.0000 C   0  0  0  0  0  0  0  0  0 25  0  0
    4.4949    8.0095    0.0000 C   0  0  0  0  0  0  0  0  0 18  0  0
    5.4580    9.8996    0.0000 H   0  0  0  0  0  0  0  0  0  0  0  0
    6.3850    7.0464    0.0000 H   0  0  0  0  0  0  0  0  0  0  0  0
    9.5775    6.9291    0.0000 C   0  0  0  0  0  0  0  0  0 21  0  0
    7.4591    6.8181    0.0000 H   0  0  0  0  0  0  0  0  0  0  0  0
    9.4665    9.0475    0.0000 H   0  0  0  0  0  0  0  0  0  0  0  0
    3.0684    7.5459    0.0000 C   0  0  0  0  0  0  0  0  0 22  0  0
    4.0314    9.4360    0.0000 H   0  0  0  0  0  0  0  0  0  0  0  0
    4.9585    6.5829    0.0000 H   0  0  0  0  0  0  0  0  0  0  0  0
   10.6923    5.9254    0.0000 O   0  0  0  0  0  0  0  0  0  2  0  0
    8.5738    5.8144    0.0000 H   0  0  0  0  0  0  0  0  0  0  0  0
   10.5812    8.0438    0.0000 H   0  0  0  0  0  0  0  0  0  0  0  0
    1.6418    7.0824    0.0000 O   0  0  0  0  0  0  0  0  0  3  0  0
    3.5319    6.1194    0.0000 H   0  0  0  0  0  0  0  0  0  0  0  0
    2.6048    8.9725    0.0000 H   0  0  0  0  0  0  0  0  0  0  0  0
   12.1188    6.3890    0.0000 C   0  0  0  0  0  0  0  0  0 20  0  0
    1.3299    5.6152    0.0000 C   0  0  0  0  0  0  0  0  0 32  0  0
   11.6553    7.8155    0.0000 H   0  0  0  0  0  0  0  0  0  0  0  0
   12.5824    4.9624    0.0000 H   0  0  0  0  0  0  0  0  0  0  0  0
    2.4446    4.6115    0.0000 C   0  0  0  0  0  0  0  0  0 16  0  0
   -0.0967    5.1517    0.0000 C   0  0  0  0  0  0  0  0  0 35  0  0
    2.1328    3.1443    0.0000 C   0  0  0  0  0  0  0  0  0 17  0  0
    3.8712    5.0750    0.0000 H   0  0  0  0  0  0  0  0  0  0  0  0
   -1.2114    6.1554    0.0000 O   0  0  0  0  0  0  0  0  0  4  0  0
   -0.4086    3.6844    0.0000 C   0  0  0  0  0  0  0  0  0 34  0  0
    0.7062    2.6807    0.0000 C   0  0  0  0  0  0  0  0  0 33  0  0
    3.2475    2.1406    0.0000 H   0  0  0  0  0  0  0  0  0  0  0  0
   -0.8995    7.6226    0.0000 C   0  0  0  0  0  0  0  0  0 13  0  0
   -1.8351    3.2209    0.0000 N   0  0  0  0  0  0  0  0  0  6  0  0
    0.3943    1.2135    0.0000 C   0  0  0  0  0  0  0  0  0 29  0  0
   -0.5877    9.0898    0.0000 H   0  0  0  0  0  0  0  0  0  0  0  0
   -2.3668    7.9344    0.0000 H   0  0  0  0  0  0  0  0  0  0  0  0
    0.5677    7.3107    0.0000 H   0  0  0  0  0  0  0  0  0  0  0  0
   -2.1470    1.7537    0.0000 C   0  0  0  0  0  0  0  0  0 28  0  0
    1.2760    0.0000    0.0000 N   0  0  0  0  0  0  0  0  0  7  0  0
   -1.0323    0.7500    0.0000 N   0  0  0  0  0  0  0  0  0 12  0  0
   -3.5736    1.2902    0.0000 N   0  0  0  0  0  0  0  0  0 10  0  0
    0.3943   -1.2135    0.0000 C   0  0  0  0  0  0  0  0  0 19  0  0
   -1.0323   -0.7500    0.0000 C   0  0  0  0  0  0  0  0  0 26  0  0
   -4.6883    2.2939    0.0000 C   0  0  0  0  0  0  0  0  0 27  0  0
   -3.8855   -0.1771    0.0000 H   0  0  0  0  0  0  0  0  0  0  0  0
    1.6933   -1.9635    0.0000 H   0  0  0  0  0  0  0  0  0  0  0  0
   -0.2158   -2.5838    0.0000 H   0  0  0  0  0  0  0  0  0  0  0  0
   -1.3442   -2.2172    0.0000 H   0  0  0  0  0  0  0  0  0  0  0  0
   -2.5241   -0.5932    0.0000 H   0  0  0  0  0  0  0  0  0  0  0  0
   -4.3764    3.7611    0.0000 O   0  0  0  0  0  0  0  0  0  1  0  0
   -6.1149    1.8303    0.0000 C   0  0  0  0  0  0  0  0  0 30  0  0
   -7.2296    2.8340    0.0000 C   0  0  0  0  0  0  0  0  0 14  0  0
   -6.4268    0.3631    0.0000 C   0  0  0  0  0  0  0  0  0 15  0  0
   -8.6562    2.3705    0.0000 N   0  0  0  0  0  0  0  0  0  8  0  0
   -6.9177    4.3013    0.0000 H   0  0  0  0  0  0  0  0  0  0  0  0
   -7.8533   -0.1004    0.0000 N   0  0  0  0  0  0  0  0  0  9  0  0
   -5.3120   -0.6406    0.0000 H   0  0  0  0  0  0  0  0  0  0  0  0
   -8.9681    0.9033    0.0000 C   0  0  0  0  0  0  0  0  0 31  0  0
  -10.3946    0.4398    0.0000 N   0  0  0  0  0  0  0  0  0  5  0  0
  -11.5094    1.4435    0.0000 H   0  0  0  0  0  0  0  0  0  0  0  0
  -10.7065   -1.0275    0.0000 H   0  0  0  0  0  0  0  0  0  0  0  0
   14.6601    5.8488    0.0000 H   0  0  0  0  0  0  0  0  0  0  0  0
  1  2  1  0
  3  4  2  0
  5  1  1  0
  6  1  1  0
  7  5  1  0
  5  8  1  0
  5  9  1  0
 10  6  1  0
  6 11  1  0
  6 12  1  0
 13  7  1  0
  7 14  1  0
  7 15  1  0
 16 10  1  0
 10 17  1  0
 10 18  1  0
 19 13  1  0
 13 20  1  0
 13 21  1  0
 22 16  1  0
 23 19  1  0
  3 22  1  0
 22 24  1  0
 22 25  1  0
 26 23  2  0
 23 27  1  0
 28 26  1  0
 26 29  1  0
 27 30  1  0
 27 31  2  0
 32 28  2  0
 28 33  1  0
 30 34  1  0
 35 31  1  0
 31 32  1  0
 32 36  1  0
 34 37  1  0
 34 38  1  0
 34 39  1  0
 40 35  2  0
 36 41  2  0
 42 36  1  0
 43 40  1  0
 42 40  1  0
 41 44  1  0
 45 42  1  0
 46 43  1  0
 43 47  1  0
 44 45  1  0
 44 48  1  0
 44 49  1  0
 45 50  1  0
 45 51  1  0
 52 46  2  0
 46 53  1  0
 53 54  2  0
 55 53  1  0
 54 56  1  0
 54 57  1  0
 58 55  2  0
 55 59  1  0
 56 60  2  0
 60 58  1  0
 60 61  1  0
 61 62  1  0
 61 63  1  0
  3 64  1  0
M  END
>  <SMILES>  (7) 
COc1c(OCCCNCCOCC=O)ccc2c1N=C(NC(=O)c1cnc(N)nc1)N1CCN=C21

>  <Molecular Weight>  (7) 
496.5

>  <Substrate_ID>  (7) 
MOL0018

>  <Substrate>  (7) 


>  <Substrate_SMILES>  (7) 
COc1c(OCCCN2CCOCC2)ccc2c1N=C(NC(=O)c1cnc(N)nc1)N1CCN=C21

>  <Reaction>  (7) 
N-dealkylation_(hetero_ring)

>  <Score>  (7) 
0.2116

>  <Reaction_Score>  (7) 
0.1759

>  <Bond_Score>  (7) 
0.2545

>  <Rank>  (7) 
5

>  <Subtype>  (7) 
3A4

>  <Subtype_Scores>  (7) 
[3A4] SOM_score: 0.2545, Reaction_score: 0.1759, Score: 0.2116


$$$$

     RDKit          2D

 59 62  0  0  0  0  0  0  0  0999 V2000
    7.3481    8.9365    0.0000 N   0  0  0  0  0  0  0  0  0 11  0  0
    8.4628    7.9328    0.0000 C   0  0  0  0  0  0  0  0  0 25  0  0
    9.5775    6.9291    0.0000 C   0  0  0  0  0  0  0  0  0 21  0  0
   10.6923    5.9254    0.0000 O   0  0  0  0  0  0  0  0  0  2  0  0
    5.9215    8.4730    0.0000 C   0  0  0  0  0  0  0  0  0 23  0  0
    4.4949    8.0095    0.0000 C   0  0  0  0  0  0  0  0  0 18  0  0
    5.4580    9.8996    0.0000 H   0  0  0  0  0  0  0  0  0  0  0  0
    6.3850    7.0464    0.0000 H   0  0  0  0  0  0  0  0  0  0  0  0
    3.0684    7.5459    0.0000 C   0  0  0  0  0  0  0  0  0 22  0  0
    4.0314    9.4360    0.0000 H   0  0  0  0  0  0  0  0  0  0  0  0
    4.9585    6.5829    0.0000 H   0  0  0  0  0  0  0  0  0  0  0  0
    1.6418    7.0824    0.0000 O   0  0  0  0  0  0  0  0  0  3  0  0
    3.5319    6.1194    0.0000 H   0  0  0  0  0  0  0  0  0  0  0  0
    2.6048    8.9725    0.0000 H   0  0  0  0  0  0  0  0  0  0  0  0
    1.3299    5.6152    0.0000 C   0  0  0  0  0  0  0  0  0 32  0  0
    2.4446    4.6115    0.0000 C   0  0  0  0  0  0  0  0  0 16  0  0
   -0.0967    5.1517    0.0000 C   0  0  0  0  0  0  0  0  0 35  0  0
    2.1328    3.1443    0.0000 C   0  0  0  0  0  0  0  0  0 17  0  0
    3.8712    5.0750    0.0000 H   0  0  0  0  0  0  0  0  0  0  0  0
   -1.2114    6.1554    0.0000 O   0  0  0  0  0  0  0  0  0  4  0  0
   -0.4086    3.6844    0.0000 C   0  0  0  0  0  0  0  0  0 34  0  0
    0.7062    2.6807    0.0000 C   0  0  0  0  0  0  0  0  0 33  0  0
    3.2475    2.1406    0.0000 H   0  0  0  0  0  0  0  0  0  0  0  0
   -0.8995    7.6226    0.0000 C   0  0  0  0  0  0  0  0  0 13  0  0
   -1.8351    3.2209    0.0000 N   0  0  0  0  0  0  0  0  0  6  0  0
    0.3943    1.2135    0.0000 C   0  0  0  0  0  0  0  0  0 29  0  0
   -0.5877    9.0898    0.0000 H   0  0  0  0  0  0  0  0  0  0  0  0
   -2.3668    7.9344    0.0000 H   0  0  0  0  0  0  0  0  0  0  0  0
    0.5677    7.3107    0.0000 H   0  0  0  0  0  0  0  0  0  0  0  0
   -2.1470    1.7537    0.0000 C   0  0  0  0  0  0  0  0  0 28  0  0
    1.2760    0.0000    0.0000 N   0  0  0  0  0  0  0  0  0  7  0  0
   -1.0323    0.7500    0.0000 N   0  0  0  0  0  0  0  0  0 12  0  0
   -3.5736    1.2902    0.0000 N   0  0  0  0  0  0  0  0  0 10  0  0
    0.3943   -1.2135    0.0000 C   0  0  0  0  0  0  0  0  0 19  0  0
   -1.0323   -0.7500    0.0000 C   0  0  0  0  0  0  0  0  0 26  0  0
   -4.6883    2.2939    0.0000 C   0  0  0  0  0  0  0  0  0 27  0  0
   -3.8855   -0.1771    0.0000 H   0  0  0  0  0  0  0  0  0  0  0  0
    1.6933   -1.9635    0.0000 H   0  0  0  0  0  0  0  0  0  0  0  0
   -0.2158   -2.5838    0.0000 H   0  0  0  0  0  0  0  0  0  0  0  0
   -1.3442   -2.2172    0.0000 H   0  0  0  0  0  0  0  0  0  0  0  0
   -2.5241   -0.5932    0.0000 H   0  0  0  0  0  0  0  0  0  0  0  0
   -4.3764    3.7611    0.0000 O   0  0  0  0  0  0  0  0  0  1  0  0
   -6.1149    1.8303    0.0000 C   0  0  0  0  0  0  0  0  0 30  0  0
   -7.2296    2.8340    0.0000 C   0  0  0  0  0  0  0  0  0 14  0  0
   -6.4268    0.3631    0.0000 C   0  0  0  0  0  0  0  0  0 15  0  0
   -8.6562    2.3705    0.0000 N   0  0  0  0  0  0  0  0  0  8  0  0
   -6.9177    4.3013    0.0000 H   0  0  0  0  0  0  0  0  0  0  0  0
   -7.8533   -0.1004    0.0000 N   0  0  0  0  0  0  0  0  0  9  0  0
   -5.3120   -0.6406    0.0000 H   0  0  0  0  0  0  0  0  0  0  0  0
   -8.9681    0.9033    0.0000 C   0  0  0  0  0  0  0  0  0 31  0  0
  -10.3946    0.4398    0.0000 N   0  0  0  0  0  0  0  0  0  5  0  0
  -11.5094    1.4435    0.0000 H   0  0  0  0  0  0  0  0  0  0  0  0
  -10.7065   -1.0275    0.0000 H   0  0  0  0  0  0  0  0  0  0  0  0
    7.4591    6.8181    0.0000 H   0  0  0  0  0  0  0  0  0  0  0  0
    9.4665    9.0475    0.0000 H   0  0  0  0  0  0  0  0  0  0  0  0
    8.5738    5.8144    0.0000 H   0  0  0  0  0  0  0  0  0  0  0  0
   10.5812    8.0438    0.0000 H   0  0  0  0  0  0  0  0  0  0  0  0
    7.6600   10.4037    0.0000 H   0  0  0  0  0  0  0  0  0  0  0  0
   12.1188    6.3890    0.0000 H   0  0  0  0  0  0  0  0  0  0  0  0
  1  2  1  0
  2  3  1  0
  3  4  1  0
  5  1  1  0
  6  5  1  0
  5  7  1  0
  5  8  1  0
  9  6  1  0
  6 10  1  0
  6 11  1  0
 12  9  1  0
  9 13  1  0
  9 14  1  0
 15 12  1  0
 16 15  2  0
 15 17  1  0
 18 16  1  0
 16 19  1  0
 17 20  1  0
 17 21  2  0
 22 18  2  0
 18 23  1  0
 20 24  1  0
 25 21  1  0
 21 22  1  0
 22 26  1  0
 24 27  1  0
 24 28  1  0
 24 29  1  0
 30 25  2  0
 26 31  2  0
 32 26  1  0
 33 30  1  0
 32 30  1  0
 31 34  1  0
 35 32  1  0
 36 33  1  0
 33 37  1  0
 34 35  1  0
 34 38  1  0
 34 39  1  0
 35 40  1  0
 35 41  1  0
 42 36  2  0
 36 43  1  0
 43 44  2  0
 45 43  1  0
 44 46  1  0
 44 47  1  0
 48 45  2  0
 45 49  1  0
 46 50  2  0
 50 48  1  0
 50 51  1  0
 51 52  1  0
 51 53  1  0
  2 54  1  0
  2 55  1  0
  3 56  1  0
  3 57  1  0
  1 58  1  0
  4 59  1  0
M  END
>  <SMILES>  (8) 
COc1c(OCCCNCCO)ccc2c1N=C(NC(=O)c1cnc(N)nc1)N1CCN=C21

>  <Molecular Weight>  (8) 
454.5

>  <Substrate_ID>  (8) 
MOL0018

>  <Substrate>  (8) 


>  <Substrate_SMILES>  (8) 
COc1c(OCCCN2CCOCC2)ccc2c1N=C(NC(=O)c1cnc(N)nc1)N1CCN=C21

>  <Reaction>  (8) 
N-dealkylation_(morpholine)

>  <Score>  (8) 
0.2068

>  <Reaction_Score>  (8) 
0.1705

>  <Bond_Score>  (8) 
0.2507

>  <Rank>  (8) 
6

>  <Subtype>  (8) 
2C8, 3A4

>  <Subtype_Scores>  (8) 
[2C8] SOM_score: 0.0736, Reaction_score: 0.1705, Score: 0.1119
[3A4] SOM_score: 0.2507, Reaction_score: 0.1705, Score: 0.2068


$$$$

     RDKit          2D

 64 68  0  0  0  0  0  0  0  0999 V2000
    5.9215    8.4730    0.0000 C   0  0  0  0  0  0  0  0  0 23  0  0
    7.3481    8.9365    0.0000 N   0  0  0  0  0  4  0  0  0 11  0  0
    6.6439   10.2609    0.0000 C   0  0  0  0  0  0  0  0  0 24  0  0
    8.8472    8.8842    0.0000 C   0  0  0  0  0  0  0  0  0 25  0  0
    7.5569    7.4511    0.0000 O   0  0  0  0  0  1  0  0  0 36  0  0
    4.4949    8.0095    0.0000 C   0  0  0  0  0  0  0  0  0 18  0  0
    5.5846    9.1955    0.0000 H   0  0  0  0  0  0  0  0  0  0  0  0
    6.3850    7.0464    0.0000 H   0  0  0  0  0  0  0  0  0  0  0  0
    3.0684    7.5459    0.0000 C   0  0  0  0  0  0  0  0  0 22  0  0
    4.0314    9.4360    0.0000 H   0  0  0  0  0  0  0  0  0  0  0  0
    4.9585    6.5829    0.0000 H   0  0  0  0  0  0  0  0  0  0  0  0
    1.6418    7.0824    0.0000 O   0  0  0  0  0  0  0  0  0  3  0  0
    3.5319    6.1194    0.0000 H   0  0  0  0  0  0  0  0  0  0  0  0
    2.6048    8.9725    0.0000 H   0  0  0  0  0  0  0  0  0  0  0  0
    1.3299    5.6152    0.0000 C   0  0  0  0  0  0  0  0  0 32  0  0
    2.4446    4.6115    0.0000 C   0  0  0  0  0  0  0  0  0 16  0  0
   -0.0967    5.1517    0.0000 C   0  0  0  0  0  0  0  0  0 35  0  0
    2.1328    3.1443    0.0000 C   0  0  0  0  0  0  0  0  0 17  0  0
    3.8712    5.0750    0.0000 H   0  0  0  0  0  0  0  0  0  0  0  0
   -1.2114    6.1554    0.0000 O   0  0  0  0  0  0  0  0  0  4  0  0
   -0.4086    3.6844    0.0000 C   0  0  0  0  0  0  0  0  0 34  0  0
    0.7062    2.6807    0.0000 C   0  0  0  0  0  0  0  0  0 33  0  0
    3.2475    2.1406    0.0000 H   0  0  0  0  0  0  0  0  0  0  0  0
   -0.8995    7.6226    0.0000 C   0  0  0  0  0  0  0  0  0 13  0  0
   -1.8351    3.2209    0.0000 N   0  0  0  0  0  0  0  0  0  6  0  0
    0.3943    1.2135    0.0000 C   0  0  0  0  0  0  0  0  0 29  0  0
   -0.5877    9.0898    0.0000 H   0  0  0  0  0  0  0  0  0  0  0  0
   -2.3668    7.9344    0.0000 H   0  0  0  0  0  0  0  0  0  0  0  0
    0.5677    7.3107    0.0000 H   0  0  0  0  0  0  0  0  0  0  0  0
   -2.1470    1.7537    0.0000 C   0  0  0  0  0  0  0  0  0 28  0  0
    1.2760    0.0000    0.0000 N   0  0  0  0  0  0  0  0  0  7  0  0
   -1.0323    0.7500    0.0000 N   0  0  0  0  0  0  0  0  0 12  0  0
   -3.5736    1.2902    0.0000 N   0  0  0  0  0  0  0  0  0 10  0  0
    0.3943   -1.2135    0.0000 C   0  0  0  0  0  0  0  0  0 19  0  0
   -1.0323   -0.7500    0.0000 C   0  0  0  0  0  0  0  0  0 26  0  0
   -4.6883    2.2939    0.0000 C   0  0  0  0  0  0  0  0  0 27  0  0
   -3.8855   -0.1771    0.0000 H   0  0  0  0  0  0  0  0  0  0  0  0
    1.6933   -1.9635    0.0000 H   0  0  0  0  0  0  0  0  0  0  0  0
   -0.2158   -2.5838    0.0000 H   0  0  0  0  0  0  0  0  0  0  0  0
   -1.3442   -2.2172    0.0000 H   0  0  0  0  0  0  0  0  0  0  0  0
   -2.5241   -0.5932    0.0000 H   0  0  0  0  0  0  0  0  0  0  0  0
   -4.3764    3.7611    0.0000 O   0  0  0  0  0  0  0  0  0  1  0  0
   -6.1149    1.8303    0.0000 C   0  0  0  0  0  0  0  0  0 30  0  0
   -7.2296    2.8340    0.0000 C   0  0  0  0  0  0  0  0  0 14  0  0
   -6.4268    0.3631    0.0000 C   0  0  0  0  0  0  0  0  0 15  0  0
   -8.6562    2.3705    0.0000 N   0  0  0  0  0  0  0  0  0  8  0  0
   -6.9177    4.3013    0.0000 H   0  0  0  0  0  0  0  0  0  0  0  0
   -7.8533   -0.1004    0.0000 N   0  0  0  0  0  0  0  0  0  9  0  0
   -5.3120   -0.6406    0.0000 H   0  0  0  0  0  0  0  0  0  0  0  0
   -8.9681    0.9033    0.0000 C   0  0  0  0  0  0  0  0  0 31  0  0
  -10.3946    0.4398    0.0000 N   0  0  0  0  0  0  0  0  0  5  0  0
  -11.5094    1.4435    0.0000 H   0  0  0  0  0  0  0  0  0  0  0  0
  -10.7065   -1.0275    0.0000 H   0  0  0  0  0  0  0  0  0  0  0  0
    7.4388   11.5330    0.0000 C   0  0  0  0  0  0  0  0  0 20  0  0
    5.5292   11.2646    0.0000 H   0  0  0  0  0  0  0  0  0  0  0  0
    5.9606    9.8504    0.0000 H   0  0  0  0  0  0  0  0  0  0  0  0
    8.9379   11.4807    0.0000 O   0  0  0  0  0  0  0  0  0  2  0  0
    7.7506   13.0002    0.0000 H   0  0  0  0  0  0  0  0  0  0  0  0
    6.0480   12.0949    0.0000 H   0  0  0  0  0  0  0  0  0  0  0  0
    9.6421   10.1562    0.0000 C   0  0  0  0  0  0  0  0  0 21  0  0
   10.7568    9.1525    0.0000 H   0  0  0  0  0  0  0  0  0  0  0  0
   10.8241   11.0797    0.0000 H   0  0  0  0  0  0  0  0  0  0  0  0
    8.5353    7.4169    0.0000 H   0  0  0  0  0  0  0  0  0  0  0  0
   10.2380    8.3223    0.0000 H   0  0  0  0  0  0  0  0  0  0  0  0
  1  2  1  0
  2  3  1  0
  2  4  1  0
  2  5  1  0
  6  1  1  0
  1  7  1  0
  1  8  1  0
  9  6  1  0
  6 10  1  0
  6 11  1  0
 12  9  1  0
  9 13  1  0
  9 14  1  0
 15 12  1  0
 16 15  2  0
 15 17  1  0
 18 16  1  0
 16 19  1  0
 17 20  1  0
 17 21  2  0
 22 18  2  0
 18 23  1  0
 20 24  1  0
 25 21  1  0
 21 22  1  0
 22 26  1  0
 24 27  1  0
 24 28  1  0
 24 29  1  0
 30 25  2  0
 26 31  2  0
 32 26  1  0
 33 30  1  0
 32 30  1  0
 31 34  1  0
 35 32  1  0
 36 33  1  0
 33 37  1  0
 34 35  1  0
 34 38  1  0
 34 39  1  0
 35 40  1  0
 35 41  1  0
 42 36  2  0
 36 43  1  0
 43 44  2  0
 45 43  1  0
 44 46  1  0
 44 47  1  0
 48 45  2  0
 45 49  1  0
 46 50  2  0
 50 48  1  0
 50 51  1  0
 51 52  1  0
 51 53  1  0
  3 54  1  0
  3 55  1  0
  3 56  1  0
 54 57  1  0
 54 58  1  0
 54 59  1  0
 57 60  1  0
 60  4  1  0
 60 61  1  0
 60 62  1  0
  4 63  1  0
  4 64  1  0
M  CHG  2   2   1   5  -1
M  END
>  <SMILES>  (9) 
COc1c(OCCC[N+]2([O-])CCOCC2)ccc2c1N=C(NC(=O)c1cnc(N)nc1)N1CCN=C21

>  <Molecular Weight>  (9) 
496.5

>  <Substrate_ID>  (9) 
MOL0018

>  <Substrate>  (9) 


>  <Substrate_SMILES>  (9) 
COc1c(OCCCN2CCOCC2)ccc2c1N=C(NC(=O)c1cnc(N)nc1)N1CCN=C21

>  <Reaction>  (9) 
N-oxidation_(tertiary_N),N-oxidation

>  <Score>  (9) 
0.0589

>  <Reaction_Score>  (9) 
0.0055

>  <Bond_Score>  (9) 
0.6263

>  <Rank>  (9) 
7

>  <Subtype>  (9) 
2C8, 2D6, 3A4

>  <Subtype_Scores>  (9) 
[2C8] SOM_score: 0.1748, Reaction_score: 0.0055, Score: 0.0311
[2D6] SOM_score: 0.1978, Reaction_score: 0.0055, Score: 0.0331
[3A4] SOM_score: 0.6263, Reaction_score: 0.0055, Score: 0.0589


$$$$
