
     RDKit          2D

 54 57  0  0  0  0  0  0  0  0999 V2000
   -0.4086    3.6844    0.0000 C   0  0  0  0  0  0  0  0  0 20  0  0
   -0.0967    5.1517    0.0000 O   0  0  0  0  0  0  0  0  0  2  0  0
    0.7062    2.6807    0.0000 C   0  0  0  0  0  0  0  0  0 19  0  0
   -1.8351    3.2209    0.0000 C   0  0  0  0  0  0  0  0  0 22  0  0
    0.3943    1.2135    0.0000 C   0  0  0  0  0  0  0  0  0 18  0  0
    2.1328    3.1443    0.0000 H   0  0  0  0  0  0  0  0  0  0  0  0
   -2.9499    4.2246    0.0000 O   0  0  0  0  0  0  0  0  0  3  0  0
   -2.1470    1.7537    0.0000 C   0  0  0  0  0  0  0  0  0 24  0  0
   -1.0323    0.7500    0.0000 C   0  0  0  0  0  0  0  0  0 25  0  0
    1.2760   -0.0000    0.0000 C   0  0  0  0  0  0  0  0  0 17  0  0
   -4.3764    3.7611    0.0000 C   0  0  0  0  0  0  0  0  0 23  0  0
   -3.5736    1.2902    0.0000 H   0  0  0  0  0  0  0  0  0  0  0  0
   -1.0323   -0.7500    0.0000 C   0  0  0  0  0  0  0  0  0 26  0  0
    2.7648    0.1828    0.0000 O   0  0  0  0  0  0  0  0  0  1  0  0
    0.3943   -1.2135    0.0000 C   0  0  0  0  0  0  0  0  0 16  0  0
   -5.8030    3.2976    0.0000 H   0  0  0  0  0  0  0  0  0  0  0  0
   -4.8400    5.1877    0.0000 H   0  0  0  0  0  0  0  0  0  0  0  0
   -3.9129    2.3345    0.0000 H   0  0  0  0  0  0  0  0  0  0  0  0
   -1.3442   -2.2172    0.0000 H   0  0  0  0  0  0  0  0  0  0  0  0
   -2.5241   -0.5932    0.0000 H   0  0  0  0  0  0  0  0  0  0  0  0
    1.6933   -1.9635    0.0000 C   0  0  0  0  0  0  0  0  0 15  0  0
   -0.2158   -2.5838    0.0000 H   0  0  0  0  0  0  0  0  0  0  0  0
    2.9924   -2.7135    0.0000 C   0  0  0  0  0  0  0  0  0 14  0  0
    1.2136   -2.6002    0.0000 H   0  0  0  0  0  0  0  0  0  0  0  0
    2.5961   -0.7656    0.0000 H   0  0  0  0  0  0  0  0  0  0  0  0
    2.0282   -3.8626    0.0000 C   0  0  0  0  0  0  0  0  0 13  0  0
    4.4696   -2.9740    0.0000 C   0  0  0  0  0  0  0  0  0 27  0  0
    3.5054   -1.3040    0.0000 H   0  0  0  0  0  0  0  0  0  0  0  0
    2.5412   -5.2721    0.0000 C   0  0  0  0  0  0  0  0  0 12  0  0
    0.7292   -4.6126    0.0000 H   0  0  0  0  0  0  0  0  0  0  0  0
    1.4452   -3.3189    0.0000 H   0  0  0  0  0  0  0  0  0  0  0  0
    4.9826   -4.3835    0.0000 C   0  0  0  0  0  0  0  0  0 28  0  0
    4.4696   -1.4740    0.0000 H   0  0  0  0  0  0  0  0  0  0  0  0
    5.9468   -2.7135    0.0000 H   0  0  0  0  0  0  0  0  0  0  0  0
    4.0184   -5.5326    0.0000 N   0  0  0  0  0  0  0  0  0  4  0  0
    2.3584   -6.7609    0.0000 H   0  0  0  0  0  0  0  0  0  0  0  0
    1.0640   -5.5326    0.0000 H   0  0  0  0  0  0  0  0  0  0  0  0
    6.2817   -3.6335    0.0000 H   0  0  0  0  0  0  0  0  0  0  0  0
    6.0797   -5.4065    0.0000 H   0  0  0  0  0  0  0  0  0  0  0  0
    4.5315   -6.9421    0.0000 C   0  0  0  0  0  0  0  0  0 11  0  0
    5.0445   -8.3517    0.0000 C   0  0  0  0  0  0  0  0  0  8  0  0
    5.9930   -6.6048    0.0000 H   0  0  0  0  0  0  0  0  0  0  0  0
    3.1950   -7.6232    0.0000 H   0  0  0  0  0  0  0  0  0  0  0  0
    4.0803   -9.5007    0.0000 C   0  0  0  0  0  0  0  0  0  7  0  0
    6.5217   -8.6122    0.0000 C   0  0  0  0  0  0  0  0  0  9  0  0
    4.5933  -10.9103    0.0000 C   0  0  0  0  0  0  0  0  0  6  0  0
    2.6031   -9.2403    0.0000 H   0  0  0  0  0  0  0  0  0  0  0  0
    7.0347  -10.0217    0.0000 C   0  0  0  0  0  0  0  0  0 10  0  0
    7.4859   -7.4631    0.0000 H   0  0  0  0  0  0  0  0  0  0  0  0
    6.0706  -11.1708    0.0000 C   0  0  0  0  0  0  0  0  0  5  0  0
    3.6292  -12.0594    0.0000 H   0  0  0  0  0  0  0  0  0  0  0  0
    8.5119  -10.2822    0.0000 H   0  0  0  0  0  0  0  0  0  0  0  0
    6.5836  -12.5803    0.0000 H   0  0  0  0  0  0  0  0  0  0  0  0
    1.3299    5.6152    0.0000 H   0  0  0  0  0  0  0  0  0  0  0  0
  1  2  1  0
  3  1  2  0
  1  4  1  0
  5  3  1  0
  3  6  1  0
  4  7  1  0
  4  8  2  0
  9  5  2  0
  5 10  1  0
  7 11  1  0
  8  9  1  0
  8 12  1  0
 13  9  1  0
 14 10  2  0
 10 15  1  0
 11 16  1  0
 11 17  1  0
 11 18  1  0
 15 13  1  0
 13 19  1  0
 13 20  1  0
 15 21  1  0
 15 22  1  0
 21 23  1  0
 21 24  1  0
 21 25  1  0
 23 26  1  0
 27 23  1  0
 23 28  1  0
 26 29  1  0
 26 30  1  0
 26 31  1  0
 32 27  1  0
 27 33  1  0
 27 34  1  0
 29 35  1  0
 29 36  1  0
 29 37  1  0
 35 32  1  0
 32 38  1  0
 32 39  1  0
 35 40  1  0
 40 41  1  0
 40 42  1  0
 40 43  1  0
 41 44  2  0
 45 41  1  0
 44 46  1  0
 44 47  1  0
 48 45  2  0
 45 49  1  0
 46 50  2  0
 46 51  1  0
 50 48  1  0
 48 52  1  0
 50 53  1  0
  2 54  1  0
M  END
>  <SMILES>  (1) 
COc1cc2c(cc1O)C(=O)C(CC1CCN(Cc3ccccc3)CC1)C2

>  <Molecular Weight>  (1) 
365.5

>  <Substrate_ID>  (1) 
MOL0090

>  <Substrate>  (1) 


>  <Substrate_SMILES>  (1) 
COc1cc2c(cc1OC)C(=O)C(CC1CCN(Cc3ccccc3)CC1)C2

>  <Reaction>  (1) 
O-demethylation

>  <Score>  (1) 
0.49

>  <Reaction_Score>  (1) 
0.5673

>  <Bond_Score>  (1) 
0.4233

>  <Rank>  (1) 
1

>  <Subtype>  (1) 
1A2, 2C8, 2C19, 2D6, 3A4

>  <Subtype_Scores>  (1) 
[1A2] SOM_score: 0.3040, Reaction_score: 0.5673, Score: 0.4153
[2C8] SOM_score: 0.1753, Reaction_score: 0.5673, Score: 0.3154
[2C19] SOM_score: 0.2853, Reaction_score: 0.5673, Score: 0.4023
[2D6] SOM_score: 0.4233, Reaction_score: 0.5673, Score: 0.4900
[3A4] SOM_score: 0.3479, Reaction_score: 0.5673, Score: 0.4442


$$$$

     RDKit          2D

 54 57  0  0  0  0  0  0  0  0999 V2000
   -0.4086    3.6844    0.0000 C   0  0  0  0  0  0  0  0  0 22  0  0
   -0.0967    5.1517    0.0000 O   0  0  0  0  0  0  0  0  0  3  0  0
   -1.8351    3.2209    0.0000 C   0  0  0  0  0  0  0  0  0 20  0  0
    0.7062    2.6807    0.0000 C   0  0  0  0  0  0  0  0  0 24  0  0
   -2.1470    1.7537    0.0000 C   0  0  0  0  0  0  0  0  0 19  0  0
   -2.9499    4.2246    0.0000 O   0  0  0  0  0  0  0  0  0  2  0  0
    0.3943    1.2135    0.0000 C   0  0  0  0  0  0  0  0  0 25  0  0
    2.1328    3.1443    0.0000 H   0  0  0  0  0  0  0  0  0  0  0  0
   -1.0323    0.7500    0.0000 C   0  0  0  0  0  0  0  0  0 18  0  0
   -3.5736    1.2902    0.0000 H   0  0  0  0  0  0  0  0  0  0  0  0
   -4.3764    3.7611    0.0000 C   0  0  0  0  0  0  0  0  0 21  0  0
    1.2760   -0.0000    0.0000 C   0  0  0  0  0  0  0  0  0 26  0  0
   -1.0323   -0.7500    0.0000 C   0  0  0  0  0  0  0  0  0 17  0  0
   -5.8030    3.2976    0.0000 H   0  0  0  0  0  0  0  0  0  0  0  0
   -4.8400    5.1877    0.0000 H   0  0  0  0  0  0  0  0  0  0  0  0
   -3.9129    2.3345    0.0000 H   0  0  0  0  0  0  0  0  0  0  0  0
    0.3943   -1.2135    0.0000 C   0  0  0  0  0  0  0  0  0 16  0  0
    2.3907    1.0037    0.0000 H   0  0  0  0  0  0  0  0  0  0  0  0
    1.9290   -0.4572    0.0000 H   0  0  0  0  0  0  0  0  0  0  0  0
   -2.2458   -1.6317    0.0000 O   0  0  0  0  0  0  0  0  0  1  0  0
    1.6933   -1.9635    0.0000 C   0  0  0  0  0  0  0  0  0 15  0  0
   -0.2158   -2.5838    0.0000 H   0  0  0  0  0  0  0  0  0  0  0  0
    2.9924   -2.7135    0.0000 C   0  0  0  0  0  0  0  0  0 14  0  0
    0.7906   -3.1615    0.0000 H   0  0  0  0  0  0  0  0  0  0  0  0
    2.1731   -1.3269    0.0000 H   0  0  0  0  0  0  0  0  0  0  0  0
    2.0282   -3.8626    0.0000 C   0  0  0  0  0  0  0  0  0 13  0  0
    4.4696   -2.9740    0.0000 C   0  0  0  0  0  0  0  0  0 27  0  0
    3.5054   -1.3040    0.0000 H   0  0  0  0  0  0  0  0  0  0  0  0
    2.5412   -5.2721    0.0000 C   0  0  0  0  0  0  0  0  0 12  0  0
    0.7292   -4.6126    0.0000 H   0  0  0  0  0  0  0  0  0  0  0  0
    0.9311   -2.8396    0.0000 H   0  0  0  0  0  0  0  0  0  0  0  0
    4.9826   -4.3835    0.0000 C   0  0  0  0  0  0  0  0  0 28  0  0
    4.4696   -1.4740    0.0000 H   0  0  0  0  0  0  0  0  0  0  0  0
    5.9468   -2.7135    0.0000 H   0  0  0  0  0  0  0  0  0  0  0  0
    4.0184   -5.5326    0.0000 N   0  0  0  0  0  0  0  0  0  4  0  0
    2.3584   -6.7609    0.0000 H   0  0  0  0  0  0  0  0  0  0  0  0
    1.0640   -5.5326    0.0000 H   0  0  0  0  0  0  0  0  0  0  0  0
    6.2817   -3.6335    0.0000 H   0  0  0  0  0  0  0  0  0  0  0  0
    6.0797   -5.4065    0.0000 H   0  0  0  0  0  0  0  0  0  0  0  0
    4.5315   -6.9421    0.0000 C   0  0  0  0  0  0  0  0  0 11  0  0
    5.0445   -8.3517    0.0000 C   0  0  0  0  0  0  0  0  0  8  0  0
    5.9930   -6.6048    0.0000 H   0  0  0  0  0  0  0  0  0  0  0  0
    3.1950   -7.6232    0.0000 H   0  0  0  0  0  0  0  0  0  0  0  0
    4.0803   -9.5007    0.0000 C   0  0  0  0  0  0  0  0  0  7  0  0
    6.5217   -8.6122    0.0000 C   0  0  0  0  0  0  0  0  0  9  0  0
    4.5933  -10.9103    0.0000 C   0  0  0  0  0  0  0  0  0  6  0  0
    2.6031   -9.2403    0.0000 H   0  0  0  0  0  0  0  0  0  0  0  0
    7.0347  -10.0217    0.0000 C   0  0  0  0  0  0  0  0  0 10  0  0
    7.4859   -7.4631    0.0000 H   0  0  0  0  0  0  0  0  0  0  0  0
    6.0706  -11.1708    0.0000 C   0  0  0  0  0  0  0  0  0  5  0  0
    3.6292  -12.0594    0.0000 H   0  0  0  0  0  0  0  0  0  0  0  0
    8.5119  -10.2822    0.0000 H   0  0  0  0  0  0  0  0  0  0  0  0
    6.5836  -12.5803    0.0000 H   0  0  0  0  0  0  0  0  0  0  0  0
    1.3299    5.6152    0.0000 H   0  0  0  0  0  0  0  0  0  0  0  0
  1  2  1  0
  3  1  2  0
  1  4  1  0
  5  3  1  0
  3  6  1  0
  4  7  2  0
  4  8  1  0
  9  5  2  0
  5 10  1  0
  6 11  1  0
 12  7  1  0
  7  9  1  0
  9 13  1  0
 11 14  1  0
 11 15  1  0
 11 16  1  0
 17 12  1  0
 12 18  1  0
 12 19  1  0
 20 13  2  0
 13 17  1  0
 17 21  1  0
 17 22  1  0
 21 23  1  0
 21 24  1  0
 21 25  1  0
 23 26  1  0
 27 23  1  0
 23 28  1  0
 26 29  1  0
 26 30  1  0
 26 31  1  0
 32 27  1  0
 27 33  1  0
 27 34  1  0
 29 35  1  0
 29 36  1  0
 29 37  1  0
 35 32  1  0
 32 38  1  0
 32 39  1  0
 35 40  1  0
 40 41  1  0
 40 42  1  0
 40 43  1  0
 41 44  2  0
 45 41  1  0
 44 46  1  0
 44 47  1  0
 48 45  2  0
 45 49  1  0
 46 50  2  0
 46 51  1  0
 50 48  1  0
 48 52  1  0
 50 53  1  0
  2 54  1  0
M  END
>  <SMILES>  (2) 
COc1cc2c(cc1O)CC(CC1CCN(Cc3ccccc3)CC1)C2=O

>  <Molecular Weight>  (2) 
365.5

>  <Substrate_ID>  (2) 
MOL0090

>  <Substrate>  (2) 


>  <Substrate_SMILES>  (2) 
COc1cc2c(cc1OC)C(=O)C(CC1CCN(Cc3ccccc3)CC1)C2

>  <Reaction>  (2) 
O-demethylation

>  <Score>  (2) 
0.4899

>  <Reaction_Score>  (2) 
0.5671

>  <Bond_Score>  (2) 
0.4233

>  <Rank>  (2) 
2

>  <Subtype>  (2) 
1A2, 2C8, 2C19, 2D6, 3A4

>  <Subtype_Scores>  (2) 
[1A2] SOM_score: 0.3039, Reaction_score: 0.5671, Score: 0.4152
[2C8] SOM_score: 0.1751, Reaction_score: 0.5671, Score: 0.3151
[2C19] SOM_score: 0.2846, Reaction_score: 0.5671, Score: 0.4018
[2D6] SOM_score: 0.4233, Reaction_score: 0.5671, Score: 0.4899
[3A4] SOM_score: 0.3473, Reaction_score: 0.5671, Score: 0.4438


$$$$

     RDKit          2D

 44 46  0  0  0  0  0  0  0  0999 V2000
    0.0010    6.8379    0.0000 N   0  0  0  0  0  0  0  0  0  4  0  0
    1.0430    5.7589    0.0000 C   0  0  0  0  0  0  0  0  0 12  0  0
   -1.4544    6.4751    0.0000 C   0  0  0  0  0  0  0  0  0 28  0  0
    0.6295    4.3170    0.0000 C   0  0  0  0  0  0  0  0  0 13  0  0
    1.9247    6.9725    0.0000 H   0  0  0  0  0  0  0  0  0  0  0  0
    2.3912    5.1014    0.0000 H   0  0  0  0  0  0  0  0  0  0  0  0
   -1.8679    5.0332    0.0000 C   0  0  0  0  0  0  0  0  0 27  0  0
   -2.9462    6.6319    0.0000 H   0  0  0  0  0  0  0  0  0  0  0  0
   -1.5591    7.9714    0.0000 H   0  0  0  0  0  0  0  0  0  0  0  0
   -0.8259    3.9542    0.0000 C   0  0  0  0  0  0  0  0  0 14  0  0
    2.1213    4.1603    0.0000 H   0  0  0  0  0  0  0  0  0  0  0  0
    0.7817    3.5345    0.0000 H   0  0  0  0  0  0  0  0  0  0  0  0
   -2.7496    3.8196    0.0000 H   0  0  0  0  0  0  0  0  0  0  0  0
   -3.2161    5.6907    0.0000 H   0  0  0  0  0  0  0  0  0  0  0  0
   -0.2158    2.5838    0.0000 C   0  0  0  0  0  0  0  0  0 15  0  0
   -2.0695    3.1154    0.0000 H   0  0  0  0  0  0  0  0  0  0  0  0
    0.3943    1.2135    0.0000 C   0  0  0  0  0  0  0  0  0 16  0  0
   -1.6503    2.1453    0.0000 H   0  0  0  0  0  0  0  0  0  0  0  0
    0.5465    2.8169    0.0000 H   0  0  0  0  0  0  0  0  0  0  0  0
    1.2760    0.0000    0.0000 C   0  0  0  0  0  0  0  0  0 17  0  0
   -1.0323    0.7500    0.0000 C   0  0  0  0  0  0  0  0  0 26  0  0
    1.6933    1.9635    0.0000 H   0  0  0  0  0  0  0  0  0  0  0  0
    2.7760    0.0000    0.0000 O   0  0  0  0  0  0  0  0  0  1  0  0
    0.3943   -1.2135    0.0000 C   0  0  0  0  0  0  0  0  0 18  0  0
   -1.0323   -0.7500    0.0000 C   0  0  0  0  0  0  0  0  0 25  0  0
   -2.5241    0.5932    0.0000 H   0  0  0  0  0  0  0  0  0  0  0  0
   -1.5207    2.1683    0.0000 H   0  0  0  0  0  0  0  0  0  0  0  0
    0.7062   -2.6807    0.0000 C   0  0  0  0  0  0  0  0  0 19  0  0
   -2.1470   -1.7537    0.0000 C   0  0  0  0  0  0  0  0  0 24  0  0
   -0.4086   -3.6844    0.0000 C   0  0  0  0  0  0  0  0  0 20  0  0
    2.1328   -3.1443    0.0000 H   0  0  0  0  0  0  0  0  0  0  0  0
   -1.8351   -3.2209    0.0000 C   0  0  0  0  0  0  0  0  0 22  0  0
   -3.5736   -1.2902    0.0000 H   0  0  0  0  0  0  0  0  0  0  0  0
   -0.0967   -5.1517    0.0000 O   0  0  0  0  0  0  0  0  0  2  0  0
   -2.9499   -4.2246    0.0000 O   0  0  0  0  0  0  0  0  0  3  0  0
   -1.2114   -6.1554    0.0000 C   0  0  0  0  0  0  0  0  0 21  0  0
   -4.3764   -3.7611    0.0000 C   0  0  0  0  0  0  0  0  0 23  0  0
   -2.3261   -7.1591    0.0000 H   0  0  0  0  0  0  0  0  0  0  0  0
   -0.2077   -7.2701    0.0000 H   0  0  0  0  0  0  0  0  0  0  0  0
   -2.2151   -5.0406    0.0000 H   0  0  0  0  0  0  0  0  0  0  0  0
   -5.8030   -3.2976    0.0000 H   0  0  0  0  0  0  0  0  0  0  0  0
   -4.8400   -5.1877    0.0000 H   0  0  0  0  0  0  0  0  0  0  0  0
   -3.9129   -2.3345    0.0000 H   0  0  0  0  0  0  0  0  0  0  0  0
    0.4145    8.2798    0.0000 H   0  0  0  0  0  0  0  0  0  0  0  0
  2  1  1  0
  1  3  1  0
  4  2  1  0
  2  5  1  0
  2  6  1  0
  3  7  1  0
  3  8  1  0
  3  9  1  0
 10  4  1  0
  4 11  1  0
  4 12  1  0
  7 10  1  0
  7 13  1  0
  7 14  1  0
 15 10  1  0
 10 16  1  0
 17 15  1  0
 15 18  1  0
 15 19  1  0
 20 17  1  0
 17 21  1  0
 17 22  1  0
 23 20  2  0
 24 20  1  0
 21 25  1  0
 21 26  1  0
 21 27  1  0
 25 24  2  0
 24 28  1  0
 29 25  1  0
 28 30  2  0
 28 31  1  0
 32 29  2  0
 29 33  1  0
 30 34  1  0
 30 32  1  0
 32 35  1  0
 34 36  1  0
 35 37  1  0
 36 38  1  0
 36 39  1  0
 36 40  1  0
 37 41  1  0
 37 42  1  0
 37 43  1  0
  1 44  1  0
M  END
>  <SMILES>  (3) 
COc1cc2c(cc1OC)C(=O)C(CC1CCNCC1)C2

>  <Molecular Weight>  (3) 
289.4

>  <Substrate_ID>  (3) 
MOL0090

>  <Substrate>  (3) 


>  <Substrate_SMILES>  (3) 
COc1cc2c(cc1OC)C(=O)C(CC1CCN(Cc3ccccc3)CC1)C2

>  <Reaction>  (3) 
N-dealkylation_(tertiaryN-CH2-alkyl)

>  <Score>  (3) 
0.3402

>  <Reaction_Score>  (3) 
0.3098

>  <Bond_Score>  (3) 
0.3736

>  <Rank>  (3) 
3

>  <Subtype>  (3) 
2C8, 3A4

>  <Subtype_Scores>  (3) 
[2C8] SOM_score: 0.0973, Reaction_score: 0.3098, Score: 0.1736
[3A4] SOM_score: 0.3736, Reaction_score: 0.3098, Score: 0.3402


$$$$

     RDKit          2D

 16 16  0  0  0  0  0  0  0  0999 V2000
    4.5000    0.0000    0.0000 O   0  0  0  0  0  0  0  0  0 29  0  0
    3.0000    0.0000    0.0000 C   0  0  0  0  0  0  0  0  0 11  0  0
    1.5000    0.0000    0.0000 C   0  0  0  0  0  0  0  0  0  8  0  0
    3.0000   -1.5000    0.0000 H   0  0  0  0  0  0  0  0  0  0  0  0
    3.0000    1.5000    0.0000 H   0  0  0  0  0  0  0  0  0  0  0  0
    0.7500   -1.2990    0.0000 C   0  0  0  0  0  0  0  0  0  7  0  0
    0.7500    1.2990    0.0000 C   0  0  0  0  0  0  0  0  0  9  0  0
   -0.7500   -1.2990    0.0000 C   0  0  0  0  0  0  0  0  0  6  0  0
    1.5000   -2.5981    0.0000 H   0  0  0  0  0  0  0  0  0  0  0  0
   -0.7500    1.2990    0.0000 C   0  0  0  0  0  0  0  0  0 10  0  0
    1.5000    2.5981    0.0000 H   0  0  0  0  0  0  0  0  0  0  0  0
   -1.5000    0.0000    0.0000 C   0  0  0  0  0  0  0  0  0  5  0  0
   -1.5000   -2.5981    0.0000 H   0  0  0  0  0  0  0  0  0  0  0  0
   -1.5000    2.5981    0.0000 H   0  0  0  0  0  0  0  0  0  0  0  0
   -3.0000    0.0000    0.0000 H   0  0  0  0  0  0  0  0  0  0  0  0
    5.2500    1.2990    0.0000 H   0  0  0  0  0  0  0  0  0  0  0  0
  1  2  1  0
  2  3  1  0
  2  4  1  0
  2  5  1  0
  3  6  2  0
  7  3  1  0
  6  8  1  0
  6  9  1  0
 10  7  2  0
  7 11  1  0
  8 12  2  0
  8 13  1  0
 12 10  1  0
 10 14  1  0
 12 15  1  0
  1 16  1  0
M  END
>  <SMILES>  (4) 
OCc1ccccc1

>  <Molecular Weight>  (4) 
108.1

>  <Substrate_ID>  (4) 
MOL0090

>  <Substrate>  (4) 


>  <Substrate_SMILES>  (4) 
COc1cc2c(cc1OC)C(=O)C(CC1CCN(Cc3ccccc3)CC1)C2

>  <Reaction>  (4) 
N-dealkylation_(tertiaryN-CH2-alkyl)

>  <Score>  (4) 
0.3402

>  <Reaction_Score>  (4) 
0.3098

>  <Bond_Score>  (4) 
0.3736

>  <Rank>  (4) 
3

>  <Subtype>  (4) 
2C8, 3A4

>  <Subtype_Scores>  (4) 
[2C8] SOM_score: 0.0973, Reaction_score: 0.3098, Score: 0.1736
[3A4] SOM_score: 0.3736, Reaction_score: 0.3098, Score: 0.3402


$$$$

     RDKit          2D

 14 14  0  0  0  0  0  0  0  0999 V2000
    3.0000    0.0000    0.0000 C   0  0  0  0  0  0  0  0  0 11  0  0
    3.7500   -1.2990    0.0000 O   0  0  0  0  0  0  0  0  0 29  0  0
    1.5000    0.0000    0.0000 C   0  0  0  0  0  0  0  0  0  8  0  0
    3.7500    1.2990    0.0000 H   0  0  0  0  0  0  0  0  0  0  0  0
    0.7500   -1.2990    0.0000 C   0  0  0  0  0  0  0  0  0  7  0  0
    0.7500    1.2990    0.0000 C   0  0  0  0  0  0  0  0  0  9  0  0
   -0.7500   -1.2990    0.0000 C   0  0  0  0  0  0  0  0  0  6  0  0
    1.5000   -2.5981    0.0000 H   0  0  0  0  0  0  0  0  0  0  0  0
   -0.7500    1.2990    0.0000 C   0  0  0  0  0  0  0  0  0 10  0  0
    1.5000    2.5981    0.0000 H   0  0  0  0  0  0  0  0  0  0  0  0
   -1.5000    0.0000    0.0000 C   0  0  0  0  0  0  0  0  0  5  0  0
   -1.5000   -2.5981    0.0000 H   0  0  0  0  0  0  0  0  0  0  0  0
   -1.5000    2.5981    0.0000 H   0  0  0  0  0  0  0  0  0  0  0  0
   -3.0000    0.0000    0.0000 H   0  0  0  0  0  0  0  0  0  0  0  0
  1  2  2  0
  1  3  1  0
  1  4  1  0
  3  5  2  0
  6  3  1  0
  5  7  1  0
  5  8  1  0
  9  6  2  0
  6 10  1  0
  7 11  2  0
  7 12  1  0
 11  9  1  0
  9 13  1  0
 11 14  1  0
M  END
>  <SMILES>  (5) 
O=Cc1ccccc1

>  <Molecular Weight>  (5) 
106.1

>  <Substrate_ID>  (5) 
MOL0090

>  <Substrate>  (5) 


>  <Substrate_SMILES>  (5) 
COc1cc2c(cc1OC)C(=O)C(CC1CCN(Cc3ccccc3)CC1)C2

>  <Reaction>  (5) 
N-dealkylation_(hetero_ring)

>  <Score>  (5) 
0.3402

>  <Reaction_Score>  (5) 
0.3098

>  <Bond_Score>  (5) 
0.3736

>  <Rank>  (5) 
3

>  <Subtype>  (5) 
2C8, 3A4

>  <Subtype_Scores>  (5) 
[2C8] SOM_score: 0.0973, Reaction_score: 0.3098, Score: 0.1736
[3A4] SOM_score: 0.3736, Reaction_score: 0.3098, Score: 0.3402


$$$$
