
     RDKit          2D

 61 63  0  0  0  0  0  0  0  0999 V2000
    1.5000   -0.0000    0.0000 C   0  0  0  0  0  0  0  0  0 28  0  0
    3.0000   -0.0000    0.0000 O   0  0  0  0  0  0  0  0  0  3  0  0
    0.7500   -1.2990    0.0000 C   0  0  0  0  0  0  0  0  0 16  0  0
    0.7500    1.2990    0.0000 C   0  0  0  0  0  0  0  0  0 29  0  0
   -0.7500   -1.2990    0.0000 C   0  0  0  0  0  0  0  0  0 12  0  0
    1.5000   -2.5981    0.0000 H   0  0  0  0  0  0  0  0  0  0  0  0
    1.5000    2.5981    0.0000 O   0  0  0  0  0  0  0  0  0  4  0  0
   -0.7500    1.2990    0.0000 C   0  0  0  0  0  0  0  0  0 17  0  0
   -1.5000   -0.0000    0.0000 C   0  0  0  0  0  0  0  0  0 13  0  0
   -1.5000   -2.5981    0.0000 H   0  0  0  0  0  0  0  0  0  0  0  0
    0.7500    3.8971    0.0000 C   0  0  0  0  0  0  0  0  0 18  0  0
   -1.5000    2.5981    0.0000 H   0  0  0  0  0  0  0  0  0  0  0  0
   -3.0000    0.0000    0.0000 H   0  0  0  0  0  0  0  0  0  0  0  0
    0.0000    5.1962    0.0000 C   0  0  0  0  0  0  0  0  0 31  0  0
   -0.5490    3.1471    0.0000 H   0  0  0  0  0  0  0  0  0  0  0  0
    2.1308    4.4832    0.0000 H   0  0  0  0  0  0  0  0  0  0  0  0
   -0.7500    6.4952    0.0000 C   0  0  0  0  0  0  0  0  0 24  0  0
    1.2990    5.9462    0.0000 O   0  0  0  0  0  0  0  0  0  2  0  0
   -1.2990    4.4462    0.0000 H   0  0  0  0  0  0  0  0  0  0  0  0
   -1.5000    7.7942    0.0000 N   0  0  0  0  0  0  0  0  0  7  0  0
   -1.9479    5.5924    0.0000 H   0  0  0  0  0  0  0  0  0  0  0  0
    0.6308    7.0813    0.0000 H   0  0  0  0  0  0  0  0  0  0  0  0
    2.6798    5.3601    0.0000 H   0  0  0  0  0  0  0  0  0  0  0  0
   -0.7500    9.0933    0.0000 C   0  0  0  0  0  0  0  0  0 21  0  0
   -3.0000    7.7942    0.0000 C   0  0  0  0  0  0  0  0  0 22  0  0
   -1.5000   10.3923    0.0000 C   0  0  0  0  0  0  0  0  0 19  0  0
    0.3991   10.0574    0.0000 H   0  0  0  0  0  0  0  0  0  0  0  0
    0.5080    8.2763    0.0000 H   0  0  0  0  0  0  0  0  0  0  0  0
   -3.7500    9.0933    0.0000 C   0  0  0  0  0  0  0  0  0 20  0  0
   -2.9215    6.2963    0.0000 H   0  0  0  0  0  0  0  0  0  0  0  0
   -4.4095    7.2812    0.0000 H   0  0  0  0  0  0  0  0  0  0  0  0
   -3.0000   10.3923    0.0000 N   0  0  0  0  0  0  0  0  0  6  0  0
   -1.5785   11.8903    0.0000 H   0  0  0  0  0  0  0  0  0  0  0  0
   -0.0905   10.9053    0.0000 H   0  0  0  0  0  0  0  0  0  0  0  0
   -4.8991    8.1291    0.0000 H   0  0  0  0  0  0  0  0  0  0  0  0
   -5.0080    9.9102    0.0000 H   0  0  0  0  0  0  0  0  0  0  0  0
   -3.7500   11.6913    0.0000 C   0  0  0  0  0  0  0  0  0 23  0  0
   -4.5000   12.9904    0.0000 C   0  0  0  0  0  0  0  0  0 25  0  0
   -5.1308   11.1053    0.0000 H   0  0  0  0  0  0  0  0  0  0  0  0
   -2.5521   12.5941    0.0000 H   0  0  0  0  0  0  0  0  0  0  0  0
   -4.1539   13.8057    0.0000 O   0  0  0  0  0  0  0  0  0  1  0  0
   -6.0000   12.9904    0.0000 N   0  0  0  0  0  0  0  0  0  5  0  0
   -6.7500   14.2894    0.0000 C   0  0  0  0  0  0  0  0  0 30  0  0
   -6.7500   11.6913    0.0000 H   0  0  0  0  0  0  0  0  0  0  0  0
   -6.0000   15.5885    0.0000 C   0  0  0  0  0  0  0  0  0 26  0  0
   -8.2500   14.2894    0.0000 C   0  0  0  0  0  0  0  0  0 27  0  0
   -4.5000   15.5885    0.0000 C   0  0  0  0  0  0  0  0  0  9  0  0
   -6.7500   16.8875    0.0000 C   0  0  0  0  0  0  0  0  0 14  0  0
   -9.0000   15.5885    0.0000 C   0  0  0  0  0  0  0  0  0 15  0  0
   -9.0000   12.9904    0.0000 C   0  0  0  0  0  0  0  0  0 10  0  0
   -3.0000   15.5885    0.0000 H   0  0  0  0  0  0  0  0  0  0  0  0
   -4.5000   17.0885    0.0000 H   0  0  0  0  0  0  0  0  0  0  0  0
   -4.6080   14.7093    0.0000 H   0  0  0  0  0  0  0  0  0  0  0  0
   -8.2500   16.8875    0.0000 C   0  0  0  0  0  0  0  0  0 11  0  0
   -6.0000   18.1865    0.0000 H   0  0  0  0  0  0  0  0  0  0  0  0
  -10.5000   15.5885    0.0000 H   0  0  0  0  0  0  0  0  0  0  0  0
   -9.7500   11.6913    0.0000 H   0  0  0  0  0  0  0  0  0  0  0  0
  -10.2990   13.7404    0.0000 H   0  0  0  0  0  0  0  0  0  0  0  0
   -7.7010   12.2404    0.0000 H   0  0  0  0  0  0  0  0  0  0  0  0
   -9.0000   18.1865    0.0000 H   0  0  0  0  0  0  0  0  0  0  0  0
    3.7500   -1.2990    0.0000 H   0  0  0  0  0  0  0  0  0  0  0  0
  1  2  1  0
  3  1  2  0
  1  4  1  0
  5  3  1  0
  3  6  1  0
  7  4  1  0
  4  8  2  0
  9  5  2  0
  5 10  1  0
 11  7  1  0
  8  9  1  0
  8 12  1  0
  9 13  1  0
 14 11  1  0
 11 15  1  0
 11 16  1  0
 17 14  1  0
 14 18  1  0
 14 19  1  6
 20 17  1  0
 17 21  1  0
 17 22  1  0
 18 23  1  0
 24 20  1  0
 20 25  1  0
 26 24  1  0
 24 27  1  0
 24 28  1  0
 25 29  1  0
 25 30  1  0
 25 31  1  0
 32 26  1  0
 26 33  1  0
 26 34  1  0
 29 32  1  0
 29 35  1  0
 29 36  1  0
 37 32  1  0
 38 37  1  0
 37 39  1  0
 37 40  1  0
 41 38  2  0
 38 42  1  0
 42 43  1  0
 42 44  1  0
 43 45  2  0
 46 43  1  0
 45 47  1  0
 45 48  1  0
 49 46  2  0
 46 50  1  0
 47 51  1  0
 47 52  1  0
 47 53  1  0
 48 54  2  0
 48 55  1  0
 54 49  1  0
 49 56  1  0
 50 57  1  0
 50 58  1  0
 50 59  1  0
 54 60  1  0
  2 61  1  0
M  END
>  <SMILES>  (1) 
Cc1cccc(C)c1NC(=O)CN1CCN(CC(O)COc2ccccc2O)CC1

>  <Molecular Weight>  (1) 
413.5

>  <Substrate_ID>  (1) 
MOL0009

>  <Substrate>  (1) 


>  <Substrate_SMILES>  (1) 
COc1ccccc1OCC(O)CN1CCN(CC(=O)Nc2c(C)cccc2C)CC1

>  <Reaction>  (1) 
O-demethylation

>  <Score>  (1) 
0.4095

>  <Reaction_Score>  (1) 
0.4973

>  <Bond_Score>  (1) 
0.3372

>  <Rank>  (1) 
1

>  <Subtype>  (1) 
2C8, 2C19, 2D6, 3A4

>  <Subtype_Scores>  (1) 
[2C8] SOM_score: 0.1705, Reaction_score: 0.4973, Score: 0.2912
[2C19] SOM_score: 0.1986, Reaction_score: 0.4973, Score: 0.3142
[2D6] SOM_score: 0.3264, Reaction_score: 0.4973, Score: 0.4029
[3A4] SOM_score: 0.3372, Reaction_score: 0.4973, Score: 0.4095


$$$$

     RDKit          2D

 41 42  0  0  0  0  0  0  0  0999 V2000
    1.5000    0.0000    0.0000 N   0  0  0  0  0  0  0  0  0  6  0  0
    0.7500   -1.2990    0.0000 C   0  0  0  0  0  0  0  0  0 19  0  0
    0.7500    1.2990    0.0000 C   0  0  0  0  0  0  0  0  0 20  0  0
   -0.7500   -1.2990    0.0000 C   0  0  0  0  0  0  0  0  0 21  0  0
    2.1595   -1.8121    0.0000 H   0  0  0  0  0  0  0  0  0  0  0  0
    0.4895   -2.7762    0.0000 H   0  0  0  0  0  0  0  0  0  0  0  0
   -0.7500    1.2990    0.0000 C   0  0  0  0  0  0  0  0  0 22  0  0
    0.4895    2.7762    0.0000 H   0  0  0  0  0  0  0  0  0  0  0  0
    2.1595    1.8121    0.0000 H   0  0  0  0  0  0  0  0  0  0  0  0
   -1.5000    0.0000    0.0000 N   0  0  0  0  0  0  0  0  0  7  0  0
   -0.4895   -2.7762    0.0000 H   0  0  0  0  0  0  0  0  0  0  0  0
   -2.0865   -1.9801    0.0000 H   0  0  0  0  0  0  0  0  0  0  0  0
   -2.0865    1.9801    0.0000 H   0  0  0  0  0  0  0  0  0  0  0  0
   -0.4895    2.7762    0.0000 H   0  0  0  0  0  0  0  0  0  0  0  0
   -3.0000    0.0000    0.0000 C   0  0  0  0  0  0  0  0  0 24  0  0
   -4.5000    0.0000    0.0000 C   0  0  0  0  0  0  0  0  0 31  0  0
   -3.1828   -1.4888    0.0000 H   0  0  0  0  0  0  0  0  0  0  0  0
   -3.1828    1.4888    0.0000 H   0  0  0  0  0  0  0  0  0  0  0  0
   -4.5000   -1.5000    0.0000 O   0  0  0  0  0  0  0  0  0  2  0  0
   -6.0000    0.0000    0.0000 C   0  0  0  0  0  0  0  0  0 18  0  0
   -4.5000    1.5000    0.0000 H   0  0  0  0  0  0  0  0  0  0  0  0
   -5.6979   -2.4028    0.0000 H   0  0  0  0  0  0  0  0  0  0  0  0
   -7.5000    0.0000    0.0000 O   0  0  0  0  0  0  0  0  0  4  0  0
   -6.0000    1.5000    0.0000 H   0  0  0  0  0  0  0  0  0  0  0  0
   -6.1828   -1.4888    0.0000 H   0  0  0  0  0  0  0  0  0  0  0  0
   -8.2500    1.2990    0.0000 C   0  0  0  0  0  0  0  0  0 29  0  0
   -7.5000    2.5981    0.0000 C   0  0  0  0  0  0  0  0  0 17  0  0
   -9.7500    1.2990    0.0000 C   0  0  0  0  0  0  0  0  0 28  0  0
   -8.2500    3.8971    0.0000 C   0  0  0  0  0  0  0  0  0 13  0  0
   -6.0000    2.5981    0.0000 H   0  0  0  0  0  0  0  0  0  0  0  0
  -10.5000    2.5981    0.0000 C   0  0  0  0  0  0  0  0  0 16  0  0
  -10.5000    0.0000    0.0000 O   0  0  0  0  0  0  0  0  0  3  0  0
   -9.7500    3.8971    0.0000 C   0  0  0  0  0  0  0  0  0 12  0  0
   -7.5000    5.1962    0.0000 H   0  0  0  0  0  0  0  0  0  0  0  0
  -12.0000    2.5981    0.0000 H   0  0  0  0  0  0  0  0  0  0  0  0
  -12.0000    0.0000    0.0000 C   0  0  0  0  0  0  0  0  0  8  0  0
  -10.5000    5.1962    0.0000 H   0  0  0  0  0  0  0  0  0  0  0  0
  -13.5000    0.0000    0.0000 H   0  0  0  0  0  0  0  0  0  0  0  0
  -12.0000   -1.5000    0.0000 H   0  0  0  0  0  0  0  0  0  0  0  0
  -12.0000    1.5000    0.0000 H   0  0  0  0  0  0  0  0  0  0  0  0
    3.0000    0.0000    0.0000 H   0  0  0  0  0  0  0  0  0  0  0  0
  1  2  1  0
  3  1  1  0
  2  4  1  0
  2  5  1  0
  2  6  1  0
  7  3  1  0
  3  8  1  0
  3  9  1  0
  4 10  1  0
  4 11  1  0
  4 12  1  0
 10  7  1  0
  7 13  1  0
  7 14  1  0
 10 15  1  0
 15 16  1  0
 15 17  1  0
 15 18  1  0
 16 19  1  0
 16 20  1  0
 16 21  1  6
 19 22  1  0
 20 23  1  0
 20 24  1  0
 20 25  1  0
 23 26  1  0
 26 27  2  0
 28 26  1  0
 27 29  1  0
 27 30  1  0
 31 28  2  0
 28 32  1  0
 29 33  2  0
 29 34  1  0
 33 31  1  0
 31 35  1  0
 32 36  1  0
 33 37  1  0
 36 38  1  0
 36 39  1  0
 36 40  1  0
  1 41  1  0
M  END
>  <SMILES>  (2) 
COc1ccccc1OCC(O)CN1CCNCC1

>  <Molecular Weight>  (2) 
266.3

>  <Substrate_ID>  (2) 
MOL0009

>  <Substrate>  (2) 


>  <Substrate_SMILES>  (2) 
COc1ccccc1OCC(O)CN1CCN(CC(=O)Nc2c(C)cccc2C)CC1

>  <Reaction>  (2) 
N-dealkylation_(tertiaryN-CH2-alkyl)

>  <Score>  (2) 
0.1789

>  <Reaction_Score>  (2) 
0.1527

>  <Bond_Score>  (2) 
0.2096

>  <Rank>  (2) 
2

>  <Subtype>  (2) 
3A4

>  <Subtype_Scores>  (2) 
[3A4] SOM_score: 0.2096, Reaction_score: 0.1527, Score: 0.1789


$$$$

     RDKit          2D

 26 26  0  0  0  0  0  0  0  0999 V2000
    6.7500    1.2990    0.0000 O   0  0  0  0  0  0  0  0  0 32  0  0
    5.2500    1.2990    0.0000 C   0  0  0  0  0  0  0  0  0 23  0  0
    3.7500    1.2990    0.0000 C   0  0  0  0  0  0  0  0  0 25  0  0
    5.2500    2.7990    0.0000 H   0  0  0  0  0  0  0  0  0  0  0  0
    5.2500   -0.2010    0.0000 H   0  0  0  0  0  0  0  0  0  0  0  0
    3.3655    2.2050    0.0000 O   0  0  0  0  0  0  0  0  0  1  0  0
    3.0000   -0.0000    0.0000 N   0  0  0  0  0  0  0  0  0  5  0  0
    1.5000    0.0000    0.0000 C   0  0  0  0  0  0  0  0  0 30  0  0
    3.7500   -1.2990    0.0000 H   0  0  0  0  0  0  0  0  0  0  0  0
    0.7500   -1.2990    0.0000 C   0  0  0  0  0  0  0  0  0 26  0  0
    0.7500    1.2990    0.0000 C   0  0  0  0  0  0  0  0  0 27  0  0
    1.5000   -2.5981    0.0000 C   0  0  0  0  0  0  0  0  0  9  0  0
   -0.7500   -1.2990    0.0000 C   0  0  0  0  0  0  0  0  0 14  0  0
   -0.7500    1.2990    0.0000 C   0  0  0  0  0  0  0  0  0 15  0  0
    1.5000    2.5981    0.0000 C   0  0  0  0  0  0  0  0  0 10  0  0
    2.2500   -3.8971    0.0000 H   0  0  0  0  0  0  0  0  0  0  0  0
    0.2010   -3.3481    0.0000 H   0  0  0  0  0  0  0  0  0  0  0  0
    2.7990   -1.8481    0.0000 H   0  0  0  0  0  0  0  0  0  0  0  0
   -1.5000    0.0000    0.0000 C   0  0  0  0  0  0  0  0  0 11  0  0
   -1.5000   -2.5981    0.0000 H   0  0  0  0  0  0  0  0  0  0  0  0
   -1.5000    2.5981    0.0000 H   0  0  0  0  0  0  0  0  0  0  0  0
    2.2500    3.8971    0.0000 H   0  0  0  0  0  0  0  0  0  0  0  0
    2.4059    2.2136    0.0000 H   0  0  0  0  0  0  0  0  0  0  0  0
    0.2010    3.3481    0.0000 H   0  0  0  0  0  0  0  0  0  0  0  0
   -3.0000    0.0000    0.0000 H   0  0  0  0  0  0  0  0  0  0  0  0
    7.5000    0.0000    0.0000 H   0  0  0  0  0  0  0  0  0  0  0  0
  1  2  1  0
  3  2  1  0
  2  4  1  0
  2  5  1  0
  6  3  2  0
  3  7  1  0
  7  8  1  0
  7  9  1  0
  8 10  2  0
 11  8  1  0
 10 12  1  0
 10 13  1  0
 14 11  2  0
 11 15  1  0
 12 16  1  0
 12 17  1  0
 12 18  1  0
 13 19  2  0
 13 20  1  0
 19 14  1  0
 14 21  1  0
 15 22  1  0
 15 23  1  0
 15 24  1  0
 19 25  1  0
  1 26  1  0
M  END
>  <SMILES>  (3) 
Cc1cccc(C)c1NC(=O)CO

>  <Molecular Weight>  (3) 
179.2

>  <Substrate_ID>  (3) 
MOL0009

>  <Substrate>  (3) 


>  <Substrate_SMILES>  (3) 
COc1ccccc1OCC(O)CN1CCN(CC(=O)Nc2c(C)cccc2C)CC1

>  <Reaction>  (3) 
N-dealkylation_(tertiaryN-CH2-alkyl)

>  <Score>  (3) 
0.1789

>  <Reaction_Score>  (3) 
0.1527

>  <Bond_Score>  (3) 
0.2096

>  <Rank>  (3) 
2

>  <Subtype>  (3) 
3A4

>  <Subtype_Scores>  (3) 
[3A4] SOM_score: 0.2096, Reaction_score: 0.1527, Score: 0.1789


$$$$

     RDKit          2D

 24 24  0  0  0  0  0  0  0  0999 V2000
    5.2500    1.2990    0.0000 C   0  0  0  0  0  0  0  0  0 23  0  0
    6.0000    2.5981    0.0000 O   0  0  0  0  0  0  0  0  0 32  0  0
    3.7500    1.2990    0.0000 C   0  0  0  0  0  0  0  0  0 25  0  0
    6.0000    0.0000    0.0000 H   0  0  0  0  0  0  0  0  0  0  0  0
    3.3655    2.2050    0.0000 O   0  0  0  0  0  0  0  0  0  1  0  0
    3.0000   -0.0000    0.0000 N   0  0  0  0  0  0  0  0  0  5  0  0
    1.5000    0.0000    0.0000 C   0  0  0  0  0  0  0  0  0 30  0  0
    3.7500   -1.2990    0.0000 H   0  0  0  0  0  0  0  0  0  0  0  0
    0.7500   -1.2990    0.0000 C   0  0  0  0  0  0  0  0  0 26  0  0
    0.7500    1.2990    0.0000 C   0  0  0  0  0  0  0  0  0 27  0  0
    1.5000   -2.5981    0.0000 C   0  0  0  0  0  0  0  0  0  9  0  0
   -0.7500   -1.2990    0.0000 C   0  0  0  0  0  0  0  0  0 14  0  0
   -0.7500    1.2990    0.0000 C   0  0  0  0  0  0  0  0  0 15  0  0
    1.5000    2.5981    0.0000 C   0  0  0  0  0  0  0  0  0 10  0  0
    2.2500   -3.8971    0.0000 H   0  0  0  0  0  0  0  0  0  0  0  0
    2.7990   -1.8481    0.0000 H   0  0  0  0  0  0  0  0  0  0  0  0
    0.2010   -3.3481    0.0000 H   0  0  0  0  0  0  0  0  0  0  0  0
   -1.5000    0.0000    0.0000 C   0  0  0  0  0  0  0  0  0 11  0  0
   -1.5000   -2.5981    0.0000 H   0  0  0  0  0  0  0  0  0  0  0  0
   -1.5000    2.5981    0.0000 H   0  0  0  0  0  0  0  0  0  0  0  0
    2.2500    3.8971    0.0000 H   0  0  0  0  0  0  0  0  0  0  0  0
    2.4059    2.2136    0.0000 H   0  0  0  0  0  0  0  0  0  0  0  0
    0.2010    3.3481    0.0000 H   0  0  0  0  0  0  0  0  0  0  0  0
   -3.0000    0.0000    0.0000 H   0  0  0  0  0  0  0  0  0  0  0  0
  1  2  2  0
  3  1  1  0
  1  4  1  0
  5  3  2  0
  3  6  1  0
  6  7  1  0
  6  8  1  0
  7  9  2  0
 10  7  1  0
  9 11  1  0
  9 12  1  0
 13 10  2  0
 10 14  1  0
 11 15  1  0
 11 16  1  0
 11 17  1  0
 12 18  2  0
 12 19  1  0
 18 13  1  0
 13 20  1  0
 14 21  1  0
 14 22  1  0
 14 23  1  0
 18 24  1  0
M  END
>  <SMILES>  (4) 
Cc1cccc(C)c1NC(=O)C=O

>  <Molecular Weight>  (4) 
177.2

>  <Substrate_ID>  (4) 
MOL0009

>  <Substrate>  (4) 


>  <Substrate_SMILES>  (4) 
COc1ccccc1OCC(O)CN1CCN(CC(=O)Nc2c(C)cccc2C)CC1

>  <Reaction>  (4) 
N-dealkylation_(hetero_ring)

>  <Score>  (4) 
0.1789

>  <Reaction_Score>  (4) 
0.1527

>  <Bond_Score>  (4) 
0.2096

>  <Rank>  (4) 
2

>  <Subtype>  (4) 
3A4

>  <Subtype_Scores>  (4) 
[3A4] SOM_score: 0.2096, Reaction_score: 0.1527, Score: 0.1789


$$$$

     RDKit          2D

 65 67  0  0  0  0  0  0  0  0999 V2000
    1.5000   -0.0000    0.0000 C   0  0  0  0  0  0  0  0  0 26  0  0
    3.0000    0.0000    0.0000 C   0  0  0  0  0  0  0  0  0  9  0  0
    4.5000    0.0000    0.0000 O   0  0  0  0  0  0  0  0  0 32  0  0
    0.7500   -1.2990    0.0000 C   0  0  0  0  0  0  0  0  0 30  0  0
    0.7500    1.2990    0.0000 C   0  0  0  0  0  0  0  0  0 14  0  0
    1.5000   -2.5981    0.0000 N   0  0  0  0  0  0  0  0  0  5  0  0
   -0.7500   -1.2990    0.0000 C   0  0  0  0  0  0  0  0  0 27  0  0
   -0.7500    1.2990    0.0000 C   0  0  0  0  0  0  0  0  0 11  0  0
    1.5000    2.5981    0.0000 H   0  0  0  0  0  0  0  0  0  0  0  0
    0.7500   -3.8971    0.0000 C   0  0  0  0  0  0  0  0  0 25  0  0
    3.0000   -2.5981    0.0000 H   0  0  0  0  0  0  0  0  0  0  0  0
   -1.5000   -0.0000    0.0000 C   0  0  0  0  0  0  0  0  0 15  0  0
   -1.5000   -2.5981    0.0000 C   0  0  0  0  0  0  0  0  0 10  0  0
   -1.5000    2.5981    0.0000 H   0  0  0  0  0  0  0  0  0  0  0  0
   -0.1291   -3.7891    0.0000 O   0  0  0  0  0  0  0  0  0  1  0  0
    1.5000   -5.1962    0.0000 C   0  0  0  0  0  0  0  0  0 23  0  0
   -3.0000   -0.0000    0.0000 H   0  0  0  0  0  0  0  0  0  0  0  0
   -2.2500   -3.8971    0.0000 H   0  0  0  0  0  0  0  0  0  0  0  0
   -0.6847   -2.9441    0.0000 H   0  0  0  0  0  0  0  0  0  0  0  0
   -2.7990   -1.8481    0.0000 H   0  0  0  0  0  0  0  0  0  0  0  0
    2.2500   -6.4952    0.0000 N   0  0  0  0  0  0  0  0  0  6  0  0
    0.1192   -5.7822    0.0000 H   0  0  0  0  0  0  0  0  0  0  0  0
    2.6979   -4.2934    0.0000 H   0  0  0  0  0  0  0  0  0  0  0  0
    1.5000   -7.7942    0.0000 C   0  0  0  0  0  0  0  0  0 19  0  0
    3.7500   -6.4952    0.0000 C   0  0  0  0  0  0  0  0  0 20  0  0
    2.2500   -9.0933    0.0000 C   0  0  0  0  0  0  0  0  0 21  0  0
    0.3509   -8.7584    0.0000 H   0  0  0  0  0  0  0  0  0  0  0  0
    0.2420   -6.9773    0.0000 H   0  0  0  0  0  0  0  0  0  0  0  0
    4.5000   -7.7942    0.0000 C   0  0  0  0  0  0  0  0  0 22  0  0
    3.6715   -4.9972    0.0000 H   0  0  0  0  0  0  0  0  0  0  0  0
    5.1595   -5.9822    0.0000 H   0  0  0  0  0  0  0  0  0  0  0  0
    3.7500   -9.0933    0.0000 N   0  0  0  0  0  0  0  0  0  7  0  0
    2.3285  -10.5912    0.0000 H   0  0  0  0  0  0  0  0  0  0  0  0
    0.8405   -9.6063    0.0000 H   0  0  0  0  0  0  0  0  0  0  0  0
    5.6491   -6.8300    0.0000 H   0  0  0  0  0  0  0  0  0  0  0  0
    5.7580   -8.6112    0.0000 H   0  0  0  0  0  0  0  0  0  0  0  0
    4.5000  -10.3923    0.0000 C   0  0  0  0  0  0  0  0  0 24  0  0
    5.2500  -11.6913    0.0000 C   0  0  0  0  0  0  0  0  0 31  0  0
    5.8808   -9.8062    0.0000 H   0  0  0  0  0  0  0  0  0  0  0  0
    3.3021  -11.2951    0.0000 H   0  0  0  0  0  0  0  0  0  0  0  0
    6.5490  -10.9413    0.0000 O   0  0  0  0  0  0  0  0  0  2  0  0
    6.0000  -12.9904    0.0000 C   0  0  0  0  0  0  0  0  0 18  0  0
    3.9510  -12.4413    0.0000 H   0  0  0  0  0  0  0  0  0  0  0  0
    7.9298  -11.5274    0.0000 H   0  0  0  0  0  0  0  0  0  0  0  0
    6.7500  -14.2894    0.0000 O   0  0  0  0  0  0  0  0  0  4  0  0
    4.7010  -13.7404    0.0000 H   0  0  0  0  0  0  0  0  0  0  0  0
    7.3808  -12.4043    0.0000 H   0  0  0  0  0  0  0  0  0  0  0  0
    6.0000  -15.5885    0.0000 C   0  0  0  0  0  0  0  0  0 29  0  0
    4.5000  -15.5885    0.0000 C   0  0  0  0  0  0  0  0  0 17  0  0
    6.7500  -16.8875    0.0000 C   0  0  0  0  0  0  0  0  0 28  0  0
    3.7500  -16.8875    0.0000 C   0  0  0  0  0  0  0  0  0 13  0  0
    3.7500  -14.2894    0.0000 H   0  0  0  0  0  0  0  0  0  0  0  0
    6.0000  -18.1865    0.0000 C   0  0  0  0  0  0  0  0  0 16  0  0
    8.2500  -16.8875    0.0000 O   0  0  0  0  0  0  0  0  0  3  0  0
    4.5000  -18.1865    0.0000 C   0  0  0  0  0  0  0  0  0 12  0  0
    2.2500  -16.8875    0.0000 H   0  0  0  0  0  0  0  0  0  0  0  0
    6.7500  -19.4856    0.0000 H   0  0  0  0  0  0  0  0  0  0  0  0
    9.0000  -18.1865    0.0000 C   0  0  0  0  0  0  0  0  0  8  0  0
    3.7500  -19.4856    0.0000 H   0  0  0  0  0  0  0  0  0  0  0  0
    9.7500  -19.4856    0.0000 H   0  0  0  0  0  0  0  0  0  0  0  0
   10.2990  -17.4365    0.0000 H   0  0  0  0  0  0  0  0  0  0  0  0
    7.7010  -18.9365    0.0000 H   0  0  0  0  0  0  0  0  0  0  0  0
    3.0000   -1.5000    0.0000 H   0  0  0  0  0  0  0  0  0  0  0  0
    3.0000    1.5000    0.0000 H   0  0  0  0  0  0  0  0  0  0  0  0
    5.2500    1.2990    0.0000 H   0  0  0  0  0  0  0  0  0  0  0  0
  1  2  1  0
  2  3  1  0
  4  1  2  0
  1  5  1  0
  6  4  1  0
  7  4  1  0
  5  8  2  0
  5  9  1  0
 10  6  1  0
  6 11  1  0
 12  7  2  0
  7 13  1  0
  8 12  1  0
  8 14  1  0
 15 10  2  0
 10 16  1  0
 12 17  1  0
 13 18  1  0
 13 19  1  0
 13 20  1  0
 16 21  1  0
 16 22  1  0
 16 23  1  0
 21 24  1  0
 25 21  1  0
 24 26  1  0
 24 27  1  0
 24 28  1  0
 29 25  1  0
 25 30  1  0
 25 31  1  0
 26 32  1  0
 26 33  1  0
 26 34  1  0
 32 29  1  0
 29 35  1  0
 29 36  1  0
 32 37  1  0
 37 38  1  0
 37 39  1  0
 37 40  1  0
 38 41  1  0
 38 42  1  0
 38 43  1  6
 41 44  1  0
 42 45  1  0
 42 46  1  0
 42 47  1  0
 45 48  1  0
 48 49  2  0
 50 48  1  0
 49 51  1  0
 49 52  1  0
 53 50  2  0
 50 54  1  0
 51 55  2  0
 51 56  1  0
 55 53  1  0
 53 57  1  0
 54 58  1  0
 55 59  1  0
 58 60  1  0
 58 61  1  0
 58 62  1  0
  2 63  1  0
  2 64  1  0
  3 65  1  0
M  END
>  <SMILES>  (5) 
COc1ccccc1OCC(O)CN1CCN(CC(=O)Nc2c(C)cccc2CO)CC1

>  <Molecular Weight>  (5) 
443.5

>  <Substrate_ID>  (5) 
MOL0009

>  <Substrate>  (5) 


>  <Substrate_SMILES>  (5) 
COc1ccccc1OCC(O)CN1CCN(CC(=O)Nc2c(C)cccc2C)CC1

>  <Reaction>  (5) 
benzylic_hydroxylation_(c-CH3),aliphatic hydroxylation

>  <Score>  (5) 
0.1488

>  <Reaction_Score>  (5) 
0.1451

>  <Bond_Score>  (5) 
0.1525

>  <Rank>  (5) 
3

>  <Subtype>  (5) 
3A4

>  <Subtype_Scores>  (5) 
[3A4] SOM_score: 0.1525, Reaction_score: 0.1451, Score: 0.1488


$$$$

     RDKit          2D

 39 40  0  0  0  0  0  0  0  0999 V2000
    1.5000    0.0000    0.0000 N   0  0  0  0  0  0  0  0  0  7  0  0
    0.7500   -1.2990    0.0000 C   0  0  0  0  0  0  0  0  0 21  0  0
    0.7500    1.2990    0.0000 C   0  0  0  0  0  0  0  0  0 22  0  0
   -0.7500   -1.2990    0.0000 C   0  0  0  0  0  0  0  0  0 19  0  0
    2.1595   -1.8121    0.0000 H   0  0  0  0  0  0  0  0  0  0  0  0
    0.4895   -2.7762    0.0000 H   0  0  0  0  0  0  0  0  0  0  0  0
   -0.7500    1.2990    0.0000 C   0  0  0  0  0  0  0  0  0 20  0  0
    0.4895    2.7762    0.0000 H   0  0  0  0  0  0  0  0  0  0  0  0
    2.1595    1.8121    0.0000 H   0  0  0  0  0  0  0  0  0  0  0  0
   -1.5000    0.0000    0.0000 N   0  0  0  0  0  0  0  0  0  6  0  0
   -0.4895   -2.7762    0.0000 H   0  0  0  0  0  0  0  0  0  0  0  0
   -2.0865   -1.9801    0.0000 H   0  0  0  0  0  0  0  0  0  0  0  0
   -2.0865    1.9801    0.0000 H   0  0  0  0  0  0  0  0  0  0  0  0
   -0.4895    2.7762    0.0000 H   0  0  0  0  0  0  0  0  0  0  0  0
   -3.0000    0.0000    0.0000 C   0  0  0  0  0  0  0  0  0 23  0  0
   -4.5000    0.0000    0.0000 C   0  0  0  0  0  0  0  0  0 25  0  0
   -3.1828   -1.4888    0.0000 H   0  0  0  0  0  0  0  0  0  0  0  0
   -3.1828    1.4888    0.0000 H   0  0  0  0  0  0  0  0  0  0  0  0
   -4.8845    0.9059    0.0000 O   0  0  0  0  0  0  0  0  0  1  0  0
   -5.2500   -1.2990    0.0000 N   0  0  0  0  0  0  0  0  0  5  0  0
   -6.7500   -1.2990    0.0000 C   0  0  0  0  0  0  0  0  0 30  0  0
   -4.5000   -2.5981    0.0000 H   0  0  0  0  0  0  0  0  0  0  0  0
   -7.5000    0.0000    0.0000 C   0  0  0  0  0  0  0  0  0 26  0  0
   -7.5000   -2.5981    0.0000 C   0  0  0  0  0  0  0  0  0 27  0  0
   -6.7500    1.2990    0.0000 C   0  0  0  0  0  0  0  0  0  9  0  0
   -9.0000    0.0000    0.0000 C   0  0  0  0  0  0  0  0  0 14  0  0
   -9.0000   -2.5981    0.0000 C   0  0  0  0  0  0  0  0  0 15  0  0
   -6.7500   -3.8971    0.0000 C   0  0  0  0  0  0  0  0  0 10  0  0
   -6.0000    2.5981    0.0000 H   0  0  0  0  0  0  0  0  0  0  0  0
   -8.0490    2.0490    0.0000 H   0  0  0  0  0  0  0  0  0  0  0  0
   -5.8441    0.9145    0.0000 H   0  0  0  0  0  0  0  0  0  0  0  0
   -9.7500   -1.2990    0.0000 C   0  0  0  0  0  0  0  0  0 11  0  0
   -9.7500    1.2990    0.0000 H   0  0  0  0  0  0  0  0  0  0  0  0
   -9.7500   -3.8971    0.0000 H   0  0  0  0  0  0  0  0  0  0  0  0
   -6.0000   -5.1962    0.0000 H   0  0  0  0  0  0  0  0  0  0  0  0
   -8.0490   -4.6471    0.0000 H   0  0  0  0  0  0  0  0  0  0  0  0
   -5.4510   -3.1471    0.0000 H   0  0  0  0  0  0  0  0  0  0  0  0
  -11.2500   -1.2990    0.0000 H   0  0  0  0  0  0  0  0  0  0  0  0
    3.0000    0.0000    0.0000 H   0  0  0  0  0  0  0  0  0  0  0  0
  2  1  1  0
  1  3  1  0
  4  2  1  0
  2  5  1  0
  2  6  1  0
  3  7  1  0
  3  8  1  0
  3  9  1  0
 10  4  1  0
  4 11  1  0
  4 12  1  0
  7 10  1  0
  7 13  1  0
  7 14  1  0
 15 10  1  0
 16 15  1  0
 15 17  1  0
 15 18  1  0
 19 16  2  0
 16 20  1  0
 20 21  1  0
 20 22  1  0
 21 23  2  0
 24 21  1  0
 23 25  1  0
 23 26  1  0
 27 24  2  0
 24 28  1  0
 25 29  1  0
 25 30  1  0
 25 31  1  0
 26 32  2  0
 26 33  1  0
 32 27  1  0
 27 34  1  0
 28 35  1  0
 28 36  1  0
 28 37  1  0
 32 38  1  0
  1 39  1  0
M  END
>  <SMILES>  (6) 
Cc1cccc(C)c1NC(=O)CN1CCNCC1

>  <Molecular Weight>  (6) 
247.3

>  <Substrate_ID>  (6) 
MOL0009

>  <Substrate>  (6) 


>  <Substrate_SMILES>  (6) 
COc1ccccc1OCC(O)CN1CCN(CC(=O)Nc2c(C)cccc2C)CC1

>  <Reaction>  (6) 
N-dealkylation_(tertiaryN-CH2-alkyl)

>  <Score>  (6) 
0.121

>  <Reaction_Score>  (6) 
0.1045

>  <Bond_Score>  (6) 
0.14

>  <Rank>  (6) 
4

>  <Subtype>  (6) 
3A4

>  <Subtype_Scores>  (6) 
[3A4] SOM_score: 0.1400, Reaction_score: 0.1045, Score: 0.1210


$$$$

     RDKit          2D

 28 28  0  0  0  0  0  0  0  0999 V2000
    6.0000   -5.1962    0.0000 O   0  0  0  0  0  0  0  0  0 32  0  0
    5.2500   -3.8971    0.0000 C   0  0  0  0  0  0  0  0  0 24  0  0
    4.5000   -2.5981    0.0000 C   0  0  0  0  0  0  0  0  0 31  0  0
    6.6308   -3.3111    0.0000 H   0  0  0  0  0  0  0  0  0  0  0  0
    3.9510   -4.6471    0.0000 H   0  0  0  0  0  0  0  0  0  0  0  0
    5.7990   -1.8481    0.0000 O   0  0  0  0  0  0  0  0  0  2  0  0
    3.7500   -1.2990    0.0000 C   0  0  0  0  0  0  0  0  0 18  0  0
    3.2010   -3.3481    0.0000 H   0  0  0  0  0  0  0  0  0  0  0  0
    7.1798   -2.4341    0.0000 H   0  0  0  0  0  0  0  0  0  0  0  0
    3.0000    0.0000    0.0000 O   0  0  0  0  0  0  0  0  0  4  0  0
    2.4510   -2.0490    0.0000 H   0  0  0  0  0  0  0  0  0  0  0  0
    5.0490   -0.5490    0.0000 H   0  0  0  0  0  0  0  0  0  0  0  0
    1.5000    0.0000    0.0000 C   0  0  0  0  0  0  0  0  0 29  0  0
    0.7500   -1.2990    0.0000 C   0  0  0  0  0  0  0  0  0 17  0  0
    0.7500    1.2990    0.0000 C   0  0  0  0  0  0  0  0  0 28  0  0
   -0.7500   -1.2990    0.0000 C   0  0  0  0  0  0  0  0  0 13  0  0
    1.5000   -2.5981    0.0000 H   0  0  0  0  0  0  0  0  0  0  0  0
   -0.7500    1.2990    0.0000 C   0  0  0  0  0  0  0  0  0 16  0  0
    1.5000    2.5981    0.0000 O   0  0  0  0  0  0  0  0  0  3  0  0
   -1.5000    0.0000    0.0000 C   0  0  0  0  0  0  0  0  0 12  0  0
   -1.5000   -2.5981    0.0000 H   0  0  0  0  0  0  0  0  0  0  0  0
   -1.5000    2.5981    0.0000 H   0  0  0  0  0  0  0  0  0  0  0  0
    0.7500    3.8971    0.0000 C   0  0  0  0  0  0  0  0  0  8  0  0
   -3.0000    0.0000    0.0000 H   0  0  0  0  0  0  0  0  0  0  0  0
    0.0000    5.1962    0.0000 H   0  0  0  0  0  0  0  0  0  0  0  0
    2.0490    4.6471    0.0000 H   0  0  0  0  0  0  0  0  0  0  0  0
   -0.5490    3.1471    0.0000 H   0  0  0  0  0  0  0  0  0  0  0  0
    5.2500   -6.4952    0.0000 H   0  0  0  0  0  0  0  0  0  0  0  0
  1  2  1  0
  2  3  1  0
  2  4  1  0
  2  5  1  0
  3  6  1  0
  3  7  1  0
  3  8  1  1
  6  9  1  0
  7 10  1  0
  7 11  1  0
  7 12  1  0
 10 13  1  0
 13 14  2  0
 15 13  1  0
 14 16  1  0
 14 17  1  0
 18 15  2  0
 15 19  1  0
 16 20  2  0
 16 21  1  0
 20 18  1  0
 18 22  1  0
 19 23  1  0
 20 24  1  0
 23 25  1  0
 23 26  1  0
 23 27  1  0
  1 28  1  0
M  END
>  <SMILES>  (7) 
COc1ccccc1OCC(O)CO

>  <Molecular Weight>  (7) 
198.2

>  <Substrate_ID>  (7) 
MOL0009

>  <Substrate>  (7) 


>  <Substrate_SMILES>  (7) 
COc1ccccc1OCC(O)CN1CCN(CC(=O)Nc2c(C)cccc2C)CC1

>  <Reaction>  (7) 
N-dealkylation_(tertiaryN-CH2-alkyl)

>  <Score>  (7) 
0.121

>  <Reaction_Score>  (7) 
0.1045

>  <Bond_Score>  (7) 
0.14

>  <Rank>  (7) 
4

>  <Subtype>  (7) 
3A4

>  <Subtype_Scores>  (7) 
[3A4] SOM_score: 0.1400, Reaction_score: 0.1045, Score: 0.1210


$$$$

     RDKit          2D

 26 26  0  0  0  0  0  0  0  0999 V2000
    5.2500   -3.8971    0.0000 C   0  0  0  0  0  0  0  0  0 24  0  0
    6.7500   -3.8971    0.0000 O   0  0  0  0  0  0  0  0  0 32  0  0
    4.5000   -2.5981    0.0000 C   0  0  0  0  0  0  0  0  0 31  0  0
    4.5000   -5.1962    0.0000 H   0  0  0  0  0  0  0  0  0  0  0  0
    5.7990   -1.8481    0.0000 O   0  0  0  0  0  0  0  0  0  2  0  0
    3.7500   -1.2990    0.0000 C   0  0  0  0  0  0  0  0  0 18  0  0
    3.2010   -3.3481    0.0000 H   0  0  0  0  0  0  0  0  0  0  0  0
    7.0981   -2.5981    0.0000 H   0  0  0  0  0  0  0  0  0  0  0  0
    3.0000    0.0000    0.0000 O   0  0  0  0  0  0  0  0  0  4  0  0
    2.4510   -2.0490    0.0000 H   0  0  0  0  0  0  0  0  0  0  0  0
    5.0490   -0.5490    0.0000 H   0  0  0  0  0  0  0  0  0  0  0  0
    1.5000    0.0000    0.0000 C   0  0  0  0  0  0  0  0  0 29  0  0
    0.7500   -1.2990    0.0000 C   0  0  0  0  0  0  0  0  0 17  0  0
    0.7500    1.2990    0.0000 C   0  0  0  0  0  0  0  0  0 28  0  0
   -0.7500   -1.2990    0.0000 C   0  0  0  0  0  0  0  0  0 13  0  0
    1.5000   -2.5981    0.0000 H   0  0  0  0  0  0  0  0  0  0  0  0
   -0.7500    1.2990    0.0000 C   0  0  0  0  0  0  0  0  0 16  0  0
    1.5000    2.5981    0.0000 O   0  0  0  0  0  0  0  0  0  3  0  0
   -1.5000    0.0000    0.0000 C   0  0  0  0  0  0  0  0  0 12  0  0
   -1.5000   -2.5981    0.0000 H   0  0  0  0  0  0  0  0  0  0  0  0
   -1.5000    2.5981    0.0000 H   0  0  0  0  0  0  0  0  0  0  0  0
    0.7500    3.8971    0.0000 C   0  0  0  0  0  0  0  0  0  8  0  0
   -3.0000    0.0000    0.0000 H   0  0  0  0  0  0  0  0  0  0  0  0
    0.0000    5.1962    0.0000 H   0  0  0  0  0  0  0  0  0  0  0  0
    2.0490    4.6471    0.0000 H   0  0  0  0  0  0  0  0  0  0  0  0
   -0.5490    3.1471    0.0000 H   0  0  0  0  0  0  0  0  0  0  0  0
  1  2  2  0
  1  3  1  0
  1  4  1  0
  3  5  1  0
  3  6  1  0
  3  7  1  1
  5  8  1  0
  6  9  1  0
  6 10  1  0
  6 11  1  0
  9 12  1  0
 12 13  2  0
 14 12  1  0
 13 15  1  0
 13 16  1  0
 17 14  2  0
 14 18  1  0
 15 19  2  0
 15 20  1  0
 19 17  1  0
 17 21  1  0
 18 22  1  0
 19 23  1  0
 22 24  1  0
 22 25  1  0
 22 26  1  0
M  END
>  <SMILES>  (8) 
COc1ccccc1OCC(O)C=O

>  <Molecular Weight>  (8) 
196.2

>  <Substrate_ID>  (8) 
MOL0009

>  <Substrate>  (8) 


>  <Substrate_SMILES>  (8) 
COc1ccccc1OCC(O)CN1CCN(CC(=O)Nc2c(C)cccc2C)CC1

>  <Reaction>  (8) 
N-dealkylation_(hetero_ring)

>  <Score>  (8) 
0.121

>  <Reaction_Score>  (8) 
0.1045

>  <Bond_Score>  (8) 
0.14

>  <Rank>  (8) 
4

>  <Subtype>  (8) 
3A4

>  <Subtype_Scores>  (8) 
[3A4] SOM_score: 0.1400, Reaction_score: 0.1045, Score: 0.1210


$$$$

     RDKit          2D

 65 67  0  0  0  0  0  0  0  0999 V2000
    1.5000    0.0000    0.0000 C   0  0  0  0  0  0  0  0  0 21  0  0
    0.7500   -1.2990    0.0000 N   0  0  0  0  0  4  0  0  0  7  0  0
    2.1595   -1.8121    0.0000 C   0  0  0  0  0  0  0  0  0 24  0  0
   -0.7500   -1.2990    0.0000 C   0  0  0  0  0  0  0  0  0 22  0  0
    0.4895   -2.7762    0.0000 O   0  0  0  0  0  1  0  0  0 32  0  0
    0.7500    1.2990    0.0000 C   0  0  0  0  0  0  0  0  0 19  0  0
    2.6491    0.9642    0.0000 H   0  0  0  0  0  0  0  0  0  0  0  0
    2.1686   -0.4341    0.0000 H   0  0  0  0  0  0  0  0  0  0  0  0
   -0.7500    1.2990    0.0000 N   0  0  0  0  0  0  0  0  0  6  0  0
    0.6715    2.7970    0.0000 H   0  0  0  0  0  0  0  0  0  0  0  0
    2.1595    1.8121    0.0000 H   0  0  0  0  0  0  0  0  0  0  0  0
   -1.5000    2.5981    0.0000 C   0  0  0  0  0  0  0  0  0 23  0  0
   -1.5000    0.0000    0.0000 C   0  0  0  0  0  0  0  0  0 20  0  0
   -2.2500    3.8971    0.0000 C   0  0  0  0  0  0  0  0  0 25  0  0
   -2.8808    2.0120    0.0000 H   0  0  0  0  0  0  0  0  0  0  0  0
   -0.3021    3.5008    0.0000 H   0  0  0  0  0  0  0  0  0  0  0  0
   -2.6491   -0.9642    0.0000 H   0  0  0  0  0  0  0  0  0  0  0  0
   -2.7580    0.8169    0.0000 H   0  0  0  0  0  0  0  0  0  0  0  0
   -1.9039    4.7124    0.0000 O   0  0  0  0  0  0  0  0  0  1  0  0
   -3.7500    3.8971    0.0000 N   0  0  0  0  0  0  0  0  0  5  0  0
   -4.5000    5.1962    0.0000 C   0  0  0  0  0  0  0  0  0 30  0  0
   -4.5000    2.5981    0.0000 H   0  0  0  0  0  0  0  0  0  0  0  0
   -3.7500    6.4952    0.0000 C   0  0  0  0  0  0  0  0  0 26  0  0
   -6.0000    5.1962    0.0000 C   0  0  0  0  0  0  0  0  0 27  0  0
   -2.2500    6.4952    0.0000 C   0  0  0  0  0  0  0  0  0  9  0  0
   -4.5000    7.7942    0.0000 C   0  0  0  0  0  0  0  0  0 14  0  0
   -6.7500    6.4952    0.0000 C   0  0  0  0  0  0  0  0  0 15  0  0
   -6.7500    3.8971    0.0000 C   0  0  0  0  0  0  0  0  0 10  0  0
   -0.7500    6.4952    0.0000 H   0  0  0  0  0  0  0  0  0  0  0  0
   -2.2500    7.9952    0.0000 H   0  0  0  0  0  0  0  0  0  0  0  0
   -2.3580    5.6161    0.0000 H   0  0  0  0  0  0  0  0  0  0  0  0
   -6.0000    7.7942    0.0000 C   0  0  0  0  0  0  0  0  0 11  0  0
   -3.7500    9.0933    0.0000 H   0  0  0  0  0  0  0  0  0  0  0  0
   -8.2500    6.4952    0.0000 H   0  0  0  0  0  0  0  0  0  0  0  0
   -7.5000    2.5981    0.0000 H   0  0  0  0  0  0  0  0  0  0  0  0
   -8.0490    4.6471    0.0000 H   0  0  0  0  0  0  0  0  0  0  0  0
   -5.4510    3.1471    0.0000 H   0  0  0  0  0  0  0  0  0  0  0  0
   -6.7500    9.0933    0.0000 H   0  0  0  0  0  0  0  0  0  0  0  0
    3.5691   -2.3251    0.0000 C   0  0  0  0  0  0  0  0  0 31  0  0
    2.5215   -1.1018    0.0000 H   0  0  0  0  0  0  0  0  0  0  0  0
    1.6465   -3.2216    0.0000 H   0  0  0  0  0  0  0  0  0  0  0  0
    3.0560   -3.7346    0.0000 O   0  0  0  0  0  0  0  0  0  2  0  0
    4.9786   -2.8381    0.0000 C   0  0  0  0  0  0  0  0  0 18  0  0
    4.0821   -0.9156    0.0000 H   0  0  0  0  0  0  0  0  0  0  0  0
    3.7135   -5.0829    0.0000 H   0  0  0  0  0  0  0  0  0  0  0  0
    6.3882   -3.3512    0.0000 O   0  0  0  0  0  0  0  0  0  4  0  0
    5.4916   -1.4286    0.0000 H   0  0  0  0  0  0  0  0  0  0  0  0
    4.6412   -4.2997    0.0000 H   0  0  0  0  0  0  0  0  0  0  0  0
    6.6486   -4.8284    0.0000 C   0  0  0  0  0  0  0  0  0 29  0  0
    5.4996   -5.7926    0.0000 C   0  0  0  0  0  0  0  0  0 17  0  0
    8.0582   -5.3414    0.0000 C   0  0  0  0  0  0  0  0  0 28  0  0
    5.7600   -7.2698    0.0000 C   0  0  0  0  0  0  0  0  0 13  0  0
    4.0380   -5.4552    0.0000 H   0  0  0  0  0  0  0  0  0  0  0  0
    8.3186   -6.8186    0.0000 C   0  0  0  0  0  0  0  0  0 16  0  0
    9.2072   -4.3772    0.0000 O   0  0  0  0  0  0  0  0  0  3  0  0
    7.1696   -7.7828    0.0000 C   0  0  0  0  0  0  0  0  0 12  0  0
    4.6110   -8.2339    0.0000 H   0  0  0  0  0  0  0  0  0  0  0  0
    9.7282   -7.3316    0.0000 H   0  0  0  0  0  0  0  0  0  0  0  0
   10.6168   -4.8902    0.0000 C   0  0  0  0  0  0  0  0  0  8  0  0
    7.4300   -9.2600    0.0000 H   0  0  0  0  0  0  0  0  0  0  0  0
   12.0263   -5.4033    0.0000 H   0  0  0  0  0  0  0  0  0  0  0  0
   11.1298   -3.4807    0.0000 H   0  0  0  0  0  0  0  0  0  0  0  0
   10.1037   -6.2998    0.0000 H   0  0  0  0  0  0  0  0  0  0  0  0
   -0.4895   -2.7762    0.0000 H   0  0  0  0  0  0  0  0  0  0  0  0
   -2.1595   -1.8121    0.0000 H   0  0  0  0  0  0  0  0  0  0  0  0
  1  2  1  0
  2  3  1  0
  2  4  1  0
  2  5  1  0
  6  1  1  0
  1  7  1  0
  1  8  1  0
  9  6  1  0
  6 10  1  0
  6 11  1  0
 12  9  1  0
 13  9  1  0
 14 12  1  0
 12 15  1  0
 12 16  1  0
  4 13  1  0
 13 17  1  0
 13 18  1  0
 19 14  2  0
 14 20  1  0
 20 21  1  0
 20 22  1  0
 21 23  2  0
 24 21  1  0
 23 25  1  0
 23 26  1  0
 27 24  2  0
 24 28  1  0
 25 29  1  0
 25 30  1  0
 25 31  1  0
 26 32  2  0
 26 33  1  0
 32 27  1  0
 27 34  1  0
 28 35  1  0
 28 36  1  0
 28 37  1  0
 32 38  1  0
  3 39  1  0
  3 40  1  0
  3 41  1  0
 39 42  1  0
 39 43  1  0
 39 44  1  1
 42 45  1  0
 43 46  1  0
 43 47  1  0
 43 48  1  0
 46 49  1  0
 49 50  2  0
 51 49  1  0
 50 52  1  0
 50 53  1  0
 54 51  2  0
 51 55  1  0
 52 56  2  0
 52 57  1  0
 56 54  1  0
 54 58  1  0
 55 59  1  0
 56 60  1  0
 59 61  1  0
 59 62  1  0
 59 63  1  0
  4 64  1  0
  4 65  1  0
M  CHG  2   2   1   5  -1
M  END
>  <SMILES>  (9) 
COc1ccccc1OCC(O)C[N+]1([O-])CCN(CC(=O)Nc2c(C)cccc2C)CC1

>  <Molecular Weight>  (9) 
443.5

>  <Substrate_ID>  (9) 
MOL0009

>  <Substrate>  (9) 


>  <Substrate_SMILES>  (9) 
COc1ccccc1OCC(O)CN1CCN(CC(=O)Nc2c(C)cccc2C)CC1

>  <Reaction>  (9) 
N-oxidation_(tertiary_N),N-oxidation

>  <Score>  (9) 
0.0444

>  <Reaction_Score>  (9) 
0.0066

>  <Bond_Score>  (9) 
0.2984

>  <Rank>  (9) 
5

>  <Subtype>  (9) 
3A4

>  <Subtype_Scores>  (9) 
[3A4] SOM_score: 0.2984, Reaction_score: 0.0066, Score: 0.0444


$$$$

     RDKit          2D

 65 67  0  0  0  0  0  0  0  0999 V2000
    2.1595   -1.8121    0.0000 C   0  0  0  0  0  0  0  0  0 23  0  0
    0.7500   -1.2990    0.0000 N   0  0  0  0  0  4  0  0  0  6  0  0
    1.5000    0.0000    0.0000 C   0  0  0  0  0  0  0  0  0 19  0  0
   -0.7500   -1.2990    0.0000 C   0  0  0  0  0  0  0  0  0 20  0  0
    0.4895   -2.7762    0.0000 O   0  0  0  0  0  1  0  0  0 32  0  0
    3.5691   -2.3251    0.0000 C   0  0  0  0  0  0  0  0  0 25  0  0
    2.5215   -1.1018    0.0000 H   0  0  0  0  0  0  0  0  0  0  0  0
    1.6465   -3.2216    0.0000 H   0  0  0  0  0  0  0  0  0  0  0  0
    4.2402   -1.6053    0.0000 O   0  0  0  0  0  0  0  0  0  1  0  0
    3.8296   -3.8023    0.0000 N   0  0  0  0  0  0  0  0  0  5  0  0
    5.2391   -4.3153    0.0000 C   0  0  0  0  0  0  0  0  0 30  0  0
    2.6805   -4.7665    0.0000 H   0  0  0  0  0  0  0  0  0  0  0  0
    5.4996   -5.7926    0.0000 C   0  0  0  0  0  0  0  0  0 26  0  0
    6.3882   -3.3512    0.0000 C   0  0  0  0  0  0  0  0  0 27  0  0
    4.3505   -6.7567    0.0000 C   0  0  0  0  0  0  0  0  0  9  0  0
    6.9091   -6.3056    0.0000 C   0  0  0  0  0  0  0  0  0 14  0  0
    7.7977   -3.8642    0.0000 C   0  0  0  0  0  0  0  0  0 15  0  0
    6.1277   -1.8739    0.0000 C   0  0  0  0  0  0  0  0  0 10  0  0
    3.2014   -7.7209    0.0000 H   0  0  0  0  0  0  0  0  0  0  0  0
    5.3147   -7.9058    0.0000 H   0  0  0  0  0  0  0  0  0  0  0  0
    3.3863   -5.6077    0.0000 H   0  0  0  0  0  0  0  0  0  0  0  0
    8.0582   -5.3414    0.0000 C   0  0  0  0  0  0  0  0  0 11  0  0
    7.1696   -7.7828    0.0000 H   0  0  0  0  0  0  0  0  0  0  0  0
    8.9468   -2.9000    0.0000 H   0  0  0  0  0  0  0  0  0  0  0  0
    5.8672   -0.3967    0.0000 H   0  0  0  0  0  0  0  0  0  0  0  0
    5.1449   -1.9254    0.0000 H   0  0  0  0  0  0  0  0  0  0  0  0
    7.6049   -1.6135    0.0000 H   0  0  0  0  0  0  0  0  0  0  0  0
    9.4677   -5.8544    0.0000 H   0  0  0  0  0  0  0  0  0  0  0  0
    0.7500    1.2990    0.0000 C   0  0  0  0  0  0  0  0  0 21  0  0
    2.6491    0.9642    0.0000 H   0  0  0  0  0  0  0  0  0  0  0  0
    2.1686   -0.4341    0.0000 H   0  0  0  0  0  0  0  0  0  0  0  0
   -0.7500    1.2990    0.0000 N   0  0  0  0  0  0  0  0  0  7  0  0
    0.6715    2.7970    0.0000 H   0  0  0  0  0  0  0  0  0  0  0  0
    2.1595    1.8121    0.0000 H   0  0  0  0  0  0  0  0  0  0  0  0
   -1.5000    2.5981    0.0000 C   0  0  0  0  0  0  0  0  0 24  0  0
   -1.5000    0.0000    0.0000 C   0  0  0  0  0  0  0  0  0 22  0  0
   -2.2500    3.8971    0.0000 C   0  0  0  0  0  0  0  0  0 31  0  0
   -2.8808    2.0120    0.0000 H   0  0  0  0  0  0  0  0  0  0  0  0
   -0.3021    3.5008    0.0000 H   0  0  0  0  0  0  0  0  0  0  0  0
   -2.6491   -0.9642    0.0000 H   0  0  0  0  0  0  0  0  0  0  0  0
   -2.7580    0.8169    0.0000 H   0  0  0  0  0  0  0  0  0  0  0  0
   -3.5490    3.1471    0.0000 O   0  0  0  0  0  0  0  0  0  2  0  0
   -3.0000    5.1962    0.0000 C   0  0  0  0  0  0  0  0  0 18  0  0
   -0.9510    4.6471    0.0000 H   0  0  0  0  0  0  0  0  0  0  0  0
   -4.9298    3.7332    0.0000 H   0  0  0  0  0  0  0  0  0  0  0  0
   -3.7500    6.4952    0.0000 O   0  0  0  0  0  0  0  0  0  4  0  0
   -1.7010    5.9462    0.0000 H   0  0  0  0  0  0  0  0  0  0  0  0
   -4.3808    4.6101    0.0000 H   0  0  0  0  0  0  0  0  0  0  0  0
   -3.0000    7.7942    0.0000 C   0  0  0  0  0  0  0  0  0 29  0  0
   -1.5000    7.7942    0.0000 C   0  0  0  0  0  0  0  0  0 17  0  0
   -3.7500    9.0933    0.0000 C   0  0  0  0  0  0  0  0  0 28  0  0
   -0.7500    9.0933    0.0000 C   0  0  0  0  0  0  0  0  0 13  0  0
   -0.7500    6.4952    0.0000 H   0  0  0  0  0  0  0  0  0  0  0  0
   -3.0000   10.3923    0.0000 C   0  0  0  0  0  0  0  0  0 16  0  0
   -5.2500    9.0933    0.0000 O   0  0  0  0  0  0  0  0  0  3  0  0
   -1.5000   10.3923    0.0000 C   0  0  0  0  0  0  0  0  0 12  0  0
    0.7500    9.0933    0.0000 H   0  0  0  0  0  0  0  0  0  0  0  0
   -3.7500   11.6913    0.0000 H   0  0  0  0  0  0  0  0  0  0  0  0
   -6.0000   10.3923    0.0000 C   0  0  0  0  0  0  0  0  0  8  0  0
   -0.7500   11.6913    0.0000 H   0  0  0  0  0  0  0  0  0  0  0  0
   -6.7500   11.6913    0.0000 H   0  0  0  0  0  0  0  0  0  0  0  0
   -7.2990    9.6423    0.0000 H   0  0  0  0  0  0  0  0  0  0  0  0
   -4.7010   11.1423    0.0000 H   0  0  0  0  0  0  0  0  0  0  0  0
   -0.4895   -2.7762    0.0000 H   0  0  0  0  0  0  0  0  0  0  0  0
   -2.1595   -1.8121    0.0000 H   0  0  0  0  0  0  0  0  0  0  0  0
  1  2  1  0
  2  3  1  0
  2  4  1  0
  2  5  1  0
  6  1  1  0
  1  7  1  0
  1  8  1  0
  9  6  2  0
  6 10  1  0
 10 11  1  0
 10 12  1  0
 11 13  2  0
 14 11  1  0
 13 15  1  0
 13 16  1  0
 17 14  2  0
 14 18  1  0
 15 19  1  0
 15 20  1  0
 15 21  1  0
 16 22  2  0
 16 23  1  0
 22 17  1  0
 17 24  1  0
 18 25  1  0
 18 26  1  0
 18 27  1  0
 22 28  1  0
  3 29  1  0
  3 30  1  0
  3 31  1  0
 29 32  1  0
 29 33  1  0
 29 34  1  0
 32 35  1  0
 32 36  1  0
 35 37  1  0
 35 38  1  0
 35 39  1  0
 36  4  1  0
 36 40  1  0
 36 41  1  0
 37 42  1  0
 37 43  1  0
 37 44  1  6
 42 45  1  0
 43 46  1  0
 43 47  1  0
 43 48  1  0
 46 49  1  0
 49 50  2  0
 51 49  1  0
 50 52  1  0
 50 53  1  0
 54 51  2  0
 51 55  1  0
 52 56  2  0
 52 57  1  0
 56 54  1  0
 54 58  1  0
 55 59  1  0
 56 60  1  0
 59 61  1  0
 59 62  1  0
 59 63  1  0
  4 64  1  0
  4 65  1  0
M  CHG  2   2   1   5  -1
M  END
>  <SMILES>  (10) 
COc1ccccc1OCC(O)CN1CC[N+]([O-])(CC(=O)Nc2c(C)cccc2C)CC1

>  <Molecular Weight>  (10) 
443.5

>  <Substrate_ID>  (10) 
MOL0009

>  <Substrate>  (10) 


>  <Substrate_SMILES>  (10) 
COc1ccccc1OCC(O)CN1CCN(CC(=O)Nc2c(C)cccc2C)CC1

>  <Reaction>  (10) 
N-oxidation_(tertiary_N),N-oxidation

>  <Score>  (10) 
0.0386

>  <Reaction_Score>  (10) 
0.0043

>  <Bond_Score>  (10) 
0.3448

>  <Rank>  (10) 
6

>  <Subtype>  (10) 
3A4

>  <Subtype_Scores>  (10) 
[3A4] SOM_score: 0.3448, Reaction_score: 0.0043, Score: 0.0386


$$$$
