
     RDKit          2D

 12 12  0  0  0  0  0  0  0  0999 V2000
    0.8660    0.0000    0.0000 C   0  0  0  0  0  0  0  0  0  5  0  0
   -0.4330    0.7500    0.0000 C   0  0  0  0  0  0  0  0  0  6  0  0
   -0.4330   -0.7500    0.0000 O   0  0  0  0  0  0  0  0  0  7  0  0
    1.8302    1.1491    0.0000 O   0  0  0  0  0  0  0  0  0  2  0  0
    1.8302   -1.1491    0.0000 H   0  0  0  0  0  0  0  0  0  0  0  0
    3.3074    0.8886    0.0000 C   0  0  0  0  0  0  0  0  0  4  0  0
    3.8204   -0.5209    0.0000 O   0  0  0  0  0  0  0  0  0  1  0  0
    4.2716    2.0377    0.0000 N   0  0  0  0  0  0  0  0  0  3  0  0
    5.7488    1.7772    0.0000 H   0  0  0  0  0  0  0  0  0  0  0  0
    3.7586    3.4472    0.0000 H   0  0  0  0  0  0  0  0  0  0  0  0
   -1.9102    1.0105    0.0000 H   0  0  0  0  0  0  0  0  0  0  0  0
    0.0800    2.1595    0.0000 H   0  0  0  0  0  0  0  0  0  0  0  0
  1  2  1  0
  2  3  1  0
  3  1  1  0
  4  1  1  0
  1  5  1  0
  6  4  1  0
  7  6  2  0
  6  8  1  0
  8  9  1  0
  8 10  1  0
  2 11  1  0
  2 12  1  0
M  END
>  <SMILES>  (1) 
NC(=O)OC1CO1

>  <Molecular Weight>  (1) 
103.1

>  <Substrate_ID>  (1) 
MOL0099

>  <Substrate>  (1) 


>  <Substrate_SMILES>  (1) 
C=COC(N)=O

>  <Reaction>  (1) 
epoxidation

>  <Score>  (1) 
0.2539

>  <Reaction_Score>  (1) 
0.1087

>  <Bond_Score>  (1) 
0.593

>  <Rank>  (1) 
1

>  <Subtype>  (1) 
2E1

>  <Subtype_Scores>  (1) 
[2E1] SOM_score: 0.5930, Reaction_score: 0.1087, Score: 0.2539


$$$$
