
     RDKit          2D

 48 51  0  0  0  0  0  0  0  0999 V2000
   -2.0461    6.6948    0.0000 O   0  0  0  0  0  0  0  0  0  3  0  0
   -1.4360    5.3245    0.0000 C   0  0  0  0  0  0  0  0  0 22  0  0
   -2.3177    4.1110    0.0000 C   0  0  0  0  0  0  0  0  0 13  0  0
   -1.7076    2.7406    0.0000 C   0  0  0  0  0  0  0  0  0  9  0  0
   -0.2158    2.5838    0.0000 C   0  0  0  0  0  0  0  0  0 18  0  0
    0.6659    3.7974    0.0000 C   0  0  0  0  0  0  0  0  0 14  0  0
    0.0558    5.1677    0.0000 C   0  0  0  0  0  0  0  0  0 23  0  0
    0.9374    6.3812    0.0000 O   0  0  0  0  0  0  0  0  0  4  0  0
   -3.8095    4.2677    0.0000 H   0  0  0  0  0  0  0  0  0  0  0  0
   -2.3183    2.2283    0.0000 H   0  0  0  0  0  0  0  0  0  0  0  0
    0.3943    1.2135    0.0000 C   0  0  0  0  0  0  0  0  0 26  0  0
    1.2760    0.0000    0.0000 O   0  0  0  0  0  0  0  0  0  5  0  0
   -1.0323    0.7500    0.0000 C   0  0  0  0  0  0  0  0  0 24  0  0
    1.6933    1.9635    0.0000 H   0  0  0  0  0  0  0  0  0  0  0  0
    0.3943   -1.2135    0.0000 C   0  0  0  0  0  0  0  0  0 17  0  0
   -2.4589    1.2135    0.0000 C   0  0  0  0  0  0  0  0  0 16  0  0
   -1.0323   -0.7500    0.0000 C   0  0  0  0  0  0  0  0  0 25  0  0
   -0.8677    2.0899    0.0000 H   0  0  0  0  0  0  0  0  0  0  0  0
    1.6933   -1.9635    0.0000 H   0  0  0  0  0  0  0  0  0  0  0  0
   -0.0442   -2.6480    0.0000 H   0  0  0  0  0  0  0  0  0  0  0  0
   -3.3405    0.0000    0.0000 O   0  0  0  0  0  0  0  0  0  6  0  0
   -2.4172    2.0096    0.0000 H   0  0  0  0  0  0  0  0  0  0  0  0
   -3.7579    1.9635    0.0000 H   0  0  0  0  0  0  0  0  0  0  0  0
   -2.4589   -1.2135    0.0000 C   0  0  0  0  0  0  0  0  0 27  0  0
   -1.0323   -2.2500    0.0000 H   0  0  0  0  0  0  0  0  0  0  0  0
   -3.7579   -1.9635    0.0000 C   0  0  0  0  0  0  0  0  0 19  0  0
   -2.0204   -2.6480    0.0000 H   0  0  0  0  0  0  0  0  0  0  0  0
   -5.0569   -1.2135    0.0000 C   0  0  0  0  0  0  0  0  0 10  0  0
   -3.7579   -3.4635    0.0000 C   0  0  0  0  0  0  0  0  0 12  0  0
   -6.3560   -1.9635    0.0000 C   0  0  0  0  0  0  0  0  0 11  0  0
   -5.0569    0.2865    0.0000 H   0  0  0  0  0  0  0  0  0  0  0  0
   -5.0569   -4.2135    0.0000 C   0  0  0  0  0  0  0  0  0 21  0  0
   -2.4589   -4.2135    0.0000 H   0  0  0  0  0  0  0  0  0  0  0  0
   -6.3560   -3.4635    0.0000 C   0  0  0  0  0  0  0  0  0 20  0  0
   -7.6550   -1.2135    0.0000 H   0  0  0  0  0  0  0  0  0  0  0  0
   -5.0569   -5.7135    0.0000 O   0  0  0  0  0  0  0  0  0  2  0  0
   -7.6550   -4.2135    0.0000 O   0  0  0  0  0  0  0  0  0  1  0  0
   -6.3560   -6.4635    0.0000 C   0  0  0  0  0  0  0  0  0  8  0  0
   -8.9541   -3.4635    0.0000 C   0  0  0  0  0  0  0  0  0  7  0  0
   -7.6550   -7.2135    0.0000 H   0  0  0  0  0  0  0  0  0  0  0  0
   -5.6060   -7.7626    0.0000 H   0  0  0  0  0  0  0  0  0  0  0  0
   -7.1060   -5.1645    0.0000 H   0  0  0  0  0  0  0  0  0  0  0  0
  -10.2531   -2.7135    0.0000 H   0  0  0  0  0  0  0  0  0  0  0  0
   -9.7041   -4.7626    0.0000 H   0  0  0  0  0  0  0  0  0  0  0  0
   -8.2041   -2.1645    0.0000 H   0  0  0  0  0  0  0  0  0  0  0  0
    2.1577    3.6406    0.0000 H   0  0  0  0  0  0  0  0  0  0  0  0
   -3.5379    6.8516    0.0000 H   0  0  0  0  0  0  0  0  0  0  0  0
    0.3273    7.7515    0.0000 H   0  0  0  0  0  0  0  0  0  0  0  0
  1  2  1  0
  2  3  2  0
  3  4  1  0
  4  5  2  0
  5  6  1  0
  6  7  2  0
  7  8  1  0
  7  2  1  0
  3  9  1  0
  4 10  1  0
 11  5  1  0
 12 11  1  0
 11 13  1  0
 11 14  1  6
 15 12  1  0
 16 13  1  0
 13 17  1  0
 13 18  1  1
 17 15  1  0
 15 19  1  0
 15 20  1  0
 21 16  1  0
 16 22  1  0
 16 23  1  0
 17 24  1  0
 17 25  1  1
 24 21  1  0
 26 24  1  0
 24 27  1  1
 28 26  2  0
 26 29  1  0
 30 28  1  0
 28 31  1  0
 29 32  2  0
 29 33  1  0
 34 30  2  0
 30 35  1  0
 32 36  1  0
 32 34  1  0
 37 34  1  0
 36 38  1  0
 37 39  1  0
 38 40  1  0
 38 41  1  0
 38 42  1  0
 39 43  1  0
 39 44  1  0
 39 45  1  0
  6 46  1  0
  1 47  1  0
  8 48  1  0
M  END
>  <SMILES>  (1) 
COc1ccc(C2OCC3C(c4ccc(O)c(O)c4)OCC23)cc1OC

>  <Molecular Weight>  (1) 
358.4

>  <Substrate_ID>  (1) 
MOL0071

>  <Substrate>  (1) 


>  <Substrate_SMILES>  (1) 
COc1ccc(C2OCC3C(c4ccc5c(c4)OCO5)OCC23)cc1OC

>  <Reaction>  (1) 
O-dealkylation_(methylenedioxyphenyl)a

>  <Score>  (1) 
0.8117

>  <Reaction_Score>  (1) 
0.7969

>  <Bond_Score>  (1) 
0.8268

>  <Rank>  (1) 
1

>  <Subtype>  (1) 
REACTION

>  <Subtype_Scores>  (1) 
[REACTION] SOM_score: 0.8268, Reaction_score: 0.7969, Score: 0.8117


$$$$

     RDKit          2D

 46 50  0  0  0  0  0  0  0  0999 V2000
   -4.2709   10.2866    0.0000 C   0  0  0  0  0  0  0  0  0 20  0  0
   -5.6975   10.7501    0.0000 O   0  0  0  0  0  0  0  0  0  1  0  0
   -3.9591    8.8194    0.0000 C   0  0  0  0  0  0  0  0  0 11  0  0
   -3.1562   11.2903    0.0000 C   0  0  0  0  0  0  0  0  0 21  0  0
   -2.5325    8.3558    0.0000 C   0  0  0  0  0  0  0  0  0 10  0  0
   -5.0738    7.8157    0.0000 H   0  0  0  0  0  0  0  0  0  0  0  0
   -1.7296   10.8267    0.0000 C   0  0  0  0  0  0  0  0  0 12  0  0
   -3.4681   12.7575    0.0000 O   0  0  0  0  0  0  0  0  0  2  0  0
   -1.4178    9.3595    0.0000 C   0  0  0  0  0  0  0  0  0 19  0  0
   -2.5604    7.5592    0.0000 H   0  0  0  0  0  0  0  0  0  0  0  0
   -0.6149   11.8304    0.0000 H   0  0  0  0  0  0  0  0  0  0  0  0
   -4.8947   13.2210    0.0000 C   0  0  0  0  0  0  0  0  0  8  0  0
    0.0088    8.8960    0.0000 C   0  0  0  0  0  0  0  0  0 27  0  0
   -6.3213   13.6845    0.0000 H   0  0  0  0  0  0  0  0  0  0  0  0
   -4.4312   14.6476    0.0000 H   0  0  0  0  0  0  0  0  0  0  0  0
   -5.3582   11.7944    0.0000 H   0  0  0  0  0  0  0  0  0  0  0  0
    1.5006    8.7392    0.0000 O   0  0  0  0  0  0  0  0  0  6  0  0
   -0.6013    7.5257    0.0000 C   0  0  0  0  0  0  0  0  0 25  0  0
    0.3207   10.3632    0.0000 H   0  0  0  0  0  0  0  0  0  0  0  0
    1.8125    7.2720    0.0000 C   0  0  0  0  0  0  0  0  0 16  0  0
    0.5134    6.5220    0.0000 C   0  0  0  0  0  0  0  0  0 24  0  0
   -1.9003    6.7757    0.0000 C   0  0  0  0  0  0  0  0  0 17  0  0
   -1.4869    8.5446    0.0000 H   0  0  0  0  0  0  0  0  0  0  0  0
    3.2390    7.7355    0.0000 H   0  0  0  0  0  0  0  0  0  0  0  0
    2.5851    5.9863    0.0000 H   0  0  0  0  0  0  0  0  0  0  0  0
   -0.0967    5.1517    0.0000 C   0  0  0  0  0  0  0  0  0 26  0  0
    1.6281    5.5183    0.0000 H   0  0  0  0  0  0  0  0  0  0  0  0
   -1.5885    5.3085    0.0000 O   0  0  0  0  0  0  0  0  0  5  0  0
   -2.4641    7.3393    0.0000 H   0  0  0  0  0  0  0  0  0  0  0  0
   -3.3269    6.3122    0.0000 H   0  0  0  0  0  0  0  0  0  0  0  0
   -0.4086    3.6844    0.0000 C   0  0  0  0  0  0  0  0  0 18  0  0
    1.2628    4.5177    0.0000 H   0  0  0  0  0  0  0  0  0  0  0  0
   -1.8351    3.2209    0.0000 C   0  0  0  0  0  0  0  0  0  9  0  0
    0.7062    2.6807    0.0000 C   0  0  0  0  0  0  0  0  0 14  0  0
   -2.1470    1.7537    0.0000 C   0  0  0  0  0  0  0  0  0 13  0  0
   -2.9499    4.2246    0.0000 H   0  0  0  0  0  0  0  0  0  0  0  0
    0.3943    1.2135    0.0000 C   0  0  0  0  0  0  0  0  0 23  0  0
    2.1328    3.1443    0.0000 H   0  0  0  0  0  0  0  0  0  0  0  0
   -1.0323    0.7500    0.0000 C   0  0  0  0  0  0  0  0  0 22  0  0
   -3.5736    1.2902    0.0000 H   0  0  0  0  0  0  0  0  0  0  0  0
    1.2760    0.0000    0.0000 O   0  0  0  0  0  0  0  0  0  4  0  0
   -1.0323   -0.7500    0.0000 O   0  0  0  0  0  0  0  0  0  3  0  0
    0.3943   -1.2135    0.0000 C   0  0  0  0  0  0  0  0  0 15  0  0
    1.6933   -1.9635    0.0000 H   0  0  0  0  0  0  0  0  0  0  0  0
   -0.2158   -2.5838    0.0000 H   0  0  0  0  0  0  0  0  0  0  0  0
   -6.8122    9.7464    0.0000 H   0  0  0  0  0  0  0  0  0  0  0  0
  1  2  1  0
  1  3  2  0
  4  1  1  0
  3  5  1  0
  3  6  1  0
  7  4  2  0
  4  8  1  0
  5  9  2  0
  5 10  1  0
  9  7  1  0
  7 11  1  0
  8 12  1  0
  9 13  1  0
 12 14  1  0
 12 15  1  0
 12 16  1  0
 13 17  1  0
 18 13  1  0
 13 19  1  1
 17 20  1  0
 21 18  1  0
 18 22  1  0
 18 23  1  1
 20 21  1  0
 20 24  1  0
 20 25  1  0
 26 21  1  0
 21 27  1  1
 22 28  1  0
 22 29  1  0
 22 30  1  0
 28 26  1  0
 26 31  1  0
 26 32  1  6
 31 33  2  0
 34 31  1  0
 33 35  1  0
 33 36  1  0
 37 34  2  0
 34 38  1  0
 35 39  2  0
 35 40  1  0
 39 37  1  0
 37 41  1  0
 42 39  1  0
 41 43  1  0
 43 42  1  0
 43 44  1  0
 43 45  1  0
  2 46  1  0
M  END
>  <SMILES>  (2) 
COc1cc(C2OCC3C(c4ccc5c(c4)OCO5)OCC23)ccc1O

>  <Molecular Weight>  (2) 
356.4

>  <Substrate_ID>  (2) 
MOL0071

>  <Substrate>  (2) 


>  <Substrate_SMILES>  (2) 
COc1ccc(C2OCC3C(c4ccc5c(c4)OCO5)OCC23)cc1OC

>  <Reaction>  (2) 
O-demethylation

>  <Score>  (2) 
0.7354

>  <Reaction_Score>  (2) 
0.736

>  <Bond_Score>  (2) 
0.7348

>  <Rank>  (2) 
2

>  <Subtype>  (2) 
REACTION

>  <Subtype_Scores>  (2) 
[REACTION] SOM_score: 0.7348, Reaction_score: 0.7360, Score: 0.7354


$$$$

     RDKit          2D

 46 50  0  0  0  0  0  0  0  0999 V2000
   -3.1562   11.2903    0.0000 C   0  0  0  0  0  0  0  0  0 21  0  0
   -3.4681   12.7575    0.0000 O   0  0  0  0  0  0  0  0  0  2  0  0
   -1.7296   10.8267    0.0000 C   0  0  0  0  0  0  0  0  0 12  0  0
   -4.2709   10.2866    0.0000 C   0  0  0  0  0  0  0  0  0 20  0  0
   -1.4178    9.3595    0.0000 C   0  0  0  0  0  0  0  0  0 19  0  0
   -0.6149   11.8304    0.0000 H   0  0  0  0  0  0  0  0  0  0  0  0
   -5.6975   10.7501    0.0000 O   0  0  0  0  0  0  0  0  0  1  0  0
   -3.9591    8.8194    0.0000 C   0  0  0  0  0  0  0  0  0 11  0  0
   -2.5325    8.3558    0.0000 C   0  0  0  0  0  0  0  0  0 10  0  0
    0.0088    8.8960    0.0000 C   0  0  0  0  0  0  0  0  0 27  0  0
   -6.8122    9.7464    0.0000 C   0  0  0  0  0  0  0  0  0  7  0  0
   -5.0738    7.8157    0.0000 H   0  0  0  0  0  0  0  0  0  0  0  0
   -2.5604    7.5592    0.0000 H   0  0  0  0  0  0  0  0  0  0  0  0
    1.5006    8.7392    0.0000 O   0  0  0  0  0  0  0  0  0  6  0  0
   -0.6013    7.5257    0.0000 C   0  0  0  0  0  0  0  0  0 25  0  0
    0.3207   10.3632    0.0000 H   0  0  0  0  0  0  0  0  0  0  0  0
   -7.9270    8.7427    0.0000 H   0  0  0  0  0  0  0  0  0  0  0  0
   -7.8159   10.8611    0.0000 H   0  0  0  0  0  0  0  0  0  0  0  0
   -5.8086    8.6317    0.0000 H   0  0  0  0  0  0  0  0  0  0  0  0
    1.8125    7.2720    0.0000 C   0  0  0  0  0  0  0  0  0 16  0  0
    0.5134    6.5220    0.0000 C   0  0  0  0  0  0  0  0  0 24  0  0
   -1.9003    6.7757    0.0000 C   0  0  0  0  0  0  0  0  0 17  0  0
   -1.4869    8.5446    0.0000 H   0  0  0  0  0  0  0  0  0  0  0  0
    3.2390    7.7355    0.0000 H   0  0  0  0  0  0  0  0  0  0  0  0
    2.5851    5.9863    0.0000 H   0  0  0  0  0  0  0  0  0  0  0  0
   -0.0967    5.1517    0.0000 C   0  0  0  0  0  0  0  0  0 26  0  0
    1.6281    5.5183    0.0000 H   0  0  0  0  0  0  0  0  0  0  0  0
   -1.5885    5.3085    0.0000 O   0  0  0  0  0  0  0  0  0  5  0  0
   -2.4641    7.3393    0.0000 H   0  0  0  0  0  0  0  0  0  0  0  0
   -3.3269    6.3122    0.0000 H   0  0  0  0  0  0  0  0  0  0  0  0
   -0.4086    3.6844    0.0000 C   0  0  0  0  0  0  0  0  0 18  0  0
    1.2628    4.5177    0.0000 H   0  0  0  0  0  0  0  0  0  0  0  0
   -1.8351    3.2209    0.0000 C   0  0  0  0  0  0  0  0  0  9  0  0
    0.7062    2.6807    0.0000 C   0  0  0  0  0  0  0  0  0 14  0  0
   -2.1470    1.7537    0.0000 C   0  0  0  0  0  0  0  0  0 13  0  0
   -2.9499    4.2246    0.0000 H   0  0  0  0  0  0  0  0  0  0  0  0
    0.3943    1.2135    0.0000 C   0  0  0  0  0  0  0  0  0 23  0  0
    2.1328    3.1443    0.0000 H   0  0  0  0  0  0  0  0  0  0  0  0
   -1.0323    0.7500    0.0000 C   0  0  0  0  0  0  0  0  0 22  0  0
   -3.5736    1.2902    0.0000 H   0  0  0  0  0  0  0  0  0  0  0  0
    1.2760    0.0000    0.0000 O   0  0  0  0  0  0  0  0  0  4  0  0
   -1.0323   -0.7500    0.0000 O   0  0  0  0  0  0  0  0  0  3  0  0
    0.3943   -1.2135    0.0000 C   0  0  0  0  0  0  0  0  0 15  0  0
    1.6933   -1.9635    0.0000 H   0  0  0  0  0  0  0  0  0  0  0  0
   -0.2158   -2.5838    0.0000 H   0  0  0  0  0  0  0  0  0  0  0  0
   -2.3534   13.7612    0.0000 H   0  0  0  0  0  0  0  0  0  0  0  0
  1  2  1  0
  3  1  2  0
  1  4  1  0
  5  3  1  0
  3  6  1  0
  7  4  1  0
  4  8  2  0
  9  5  2  0
  5 10  1  0
  7 11  1  0
  8  9  1  0
  8 12  1  0
  9 13  1  0
 10 14  1  0
 15 10  1  0
 10 16  1  1
 11 17  1  0
 11 18  1  0
 11 19  1  0
 14 20  1  0
 21 15  1  0
 15 22  1  0
 15 23  1  1
 20 21  1  0
 20 24  1  0
 20 25  1  0
 26 21  1  0
 21 27  1  1
 22 28  1  0
 22 29  1  0
 22 30  1  0
 28 26  1  0
 26 31  1  0
 26 32  1  6
 31 33  2  0
 34 31  1  0
 33 35  1  0
 33 36  1  0
 37 34  2  0
 34 38  1  0
 35 39  2  0
 35 40  1  0
 39 37  1  0
 37 41  1  0
 42 39  1  0
 41 43  1  0
 43 42  1  0
 43 44  1  0
 43 45  1  0
  2 46  1  0
M  END
>  <SMILES>  (3) 
COc1ccc(C2OCC3C(c4ccc5c(c4)OCO5)OCC23)cc1O

>  <Molecular Weight>  (3) 
356.4

>  <Substrate_ID>  (3) 
MOL0071

>  <Substrate>  (3) 


>  <Substrate_SMILES>  (3) 
COc1ccc(C2OCC3C(c4ccc5c(c4)OCO5)OCC23)cc1OC

>  <Reaction>  (3) 
O-demethylation

>  <Score>  (3) 
0.734

>  <Reaction_Score>  (3) 
0.7346

>  <Bond_Score>  (3) 
0.7333

>  <Rank>  (3) 
3

>  <Subtype>  (3) 
REACTION

>  <Subtype_Scores>  (3) 
[REACTION] SOM_score: 0.7333, Reaction_score: 0.7346, Score: 0.7340


$$$$
