
     RDKit          2D

 62 65  0  0  0  0  0  0  0  0999 V2000
    0.7500   -1.2990    0.0000 C   0  0  0  0  0  0  0  0  0 26  0  0
    1.5000   -2.5981    0.0000 C   0  0  0  0  0  0  0  0  0 18  0  0
    0.2010   -3.3481    0.0000 O   0  0  0  0  0  0  0  0  0 33  0  0
    2.2500   -3.8971    0.0000 C   0  0  0  0  0  0  0  0  0 22  0  0
    1.5000    0.0000    0.0000 C   0  0  0  0  0  0  0  0  0 15  0  0
   -0.7500   -1.2990    0.0000 C   0  0  0  0  0  0  0  0  0 25  0  0
    0.7500    1.2990    0.0000 C   0  0  0  0  0  0  0  0  0 24  0  0
    3.0000    0.0000    0.0000 H   0  0  0  0  0  0  0  0  0  0  0  0
   -1.5000   -2.5981    0.0000 Cl  0  0  0  0  0  0  0  0  0  1  0  0
   -1.5000    0.0000    0.0000 C   0  0  0  0  0  0  0  0  0 14  0  0
   -0.7500    1.2990    0.0000 C   0  0  0  0  0  0  0  0  0 13  0  0
    1.5000    2.5981    0.0000 C   0  0  0  0  0  0  0  0  0 32  0  0
   -3.0000    0.0000    0.0000 H   0  0  0  0  0  0  0  0  0  0  0  0
   -1.5000    2.5981    0.0000 H   0  0  0  0  0  0  0  0  0  0  0  0
    0.0905    3.1111    0.0000 O   0  0  0  0  0  0  0  0  0  8  0  0
    2.6491    3.5623    0.0000 C   0  0  0  0  0  0  0  0  0 29  0  0
    2.6491    1.6339    0.0000 H   0  0  0  0  0  0  0  0  0  0  0  0
   -0.1700    4.5883    0.0000 C   0  0  0  0  0  0  0  0  0 31  0  0
    2.3886    5.0395    0.0000 C   0  0  0  0  0  0  0  0  0 28  0  0
    3.3991    2.2632    0.0000 O   0  0  0  0  0  0  0  0  0  4  0  0
    4.0586    4.0753    0.0000 H   0  0  0  0  0  0  0  0  0  0  0  0
   -0.9200    5.8874    0.0000 C   0  0  0  0  0  0  0  0  0 21  0  0
    0.9791    5.5525    0.0000 C   0  0  0  0  0  0  0  0  0 30  0  0
   -1.5796    4.0753    0.0000 H   0  0  0  0  0  0  0  0  0  0  0  0
    3.8886    5.0395    0.0000 O   0  0  0  0  0  0  0  0  0  3  0  0
    2.6491    6.5167    0.0000 H   0  0  0  0  0  0  0  0  0  0  0  0
    4.8991    2.2632    0.0000 H   0  0  0  0  0  0  0  0  0  0  0  0
   -1.6700    7.1864    0.0000 O   0  0  0  0  0  0  0  0  0  2  0  0
   -2.2190    5.1374    0.0000 H   0  0  0  0  0  0  0  0  0  0  0  0
   -0.2834    6.3671    0.0000 H   0  0  0  0  0  0  0  0  0  0  0  0
    1.7291    6.8515    0.0000 O   0  0  0  0  0  0  0  0  0  5  0  0
    0.4354    6.1355    0.0000 H   0  0  0  0  0  0  0  0  0  0  0  0
    4.6386    6.3385    0.0000 H   0  0  0  0  0  0  0  0  0  0  0  0
   -3.1700    7.1864    0.0000 H   0  0  0  0  0  0  0  0  0  0  0  0
    0.9791    8.1506    0.0000 H   0  0  0  0  0  0  0  0  0  0  0  0
    2.7990   -1.8481    0.0000 H   0  0  0  0  0  0  0  0  0  0  0  0
    1.5000   -5.1962    0.0000 C   0  0  0  0  0  0  0  0  0  9  0  0
    3.7500   -3.8971    0.0000 C   0  0  0  0  0  0  0  0  0 10  0  0
    2.2500   -6.4952    0.0000 C   0  0  0  0  0  0  0  0  0 11  0  0
    0.0112   -5.3790    0.0000 H   0  0  0  0  0  0  0  0  0  0  0  0
    4.5000   -5.1962    0.0000 C   0  0  0  0  0  0  0  0  0 12  0  0
    4.5000   -2.5981    0.0000 H   0  0  0  0  0  0  0  0  0  0  0  0
    3.7500   -6.4952    0.0000 C   0  0  0  0  0  0  0  0  0 23  0  0
    1.5000   -7.7942    0.0000 H   0  0  0  0  0  0  0  0  0  0  0  0
    6.0000   -5.1962    0.0000 H   0  0  0  0  0  0  0  0  0  0  0  0
    4.5000   -7.7942    0.0000 O   0  0  0  0  0  0  0  0  0  6  0  0
    3.7500   -9.0933    0.0000 C   0  0  0  0  0  0  0  0  0 16  0  0
    3.0000  -10.3923    0.0000 C   0  0  0  0  0  0  0  0  0 17  0  0
    2.4510   -8.3433    0.0000 H   0  0  0  0  0  0  0  0  0  0  0  0
    5.0490   -9.8433    0.0000 H   0  0  0  0  0  0  0  0  0  0  0  0
    2.2500  -11.6913    0.0000 O   0  0  0  0  0  0  0  0  0  7  0  0
    1.7010   -9.6423    0.0000 H   0  0  0  0  0  0  0  0  0  0  0  0
    4.2990  -11.1423    0.0000 H   0  0  0  0  0  0  0  0  0  0  0  0
    3.0000  -12.9904    0.0000 C   0  0  0  0  0  0  0  0  0 27  0  0
    3.2605  -14.4676    0.0000 C   0  0  0  0  0  0  0  0  0 19  0  0
    1.8509  -13.9546    0.0000 C   0  0  0  0  0  0  0  0  0 20  0  0
    4.4095  -12.4774    0.0000 H   0  0  0  0  0  0  0  0  0  0  0  0
    4.7605  -14.4676    0.0000 H   0  0  0  0  0  0  0  0  0  0  0  0
    3.0000  -15.9448    0.0000 H   0  0  0  0  0  0  0  0  0  0  0  0
    1.1009  -15.2536    0.0000 H   0  0  0  0  0  0  0  0  0  0  0  0
    0.7019  -12.9904    0.0000 H   0  0  0  0  0  0  0  0  0  0  0  0
    0.0181   -4.8369    0.0000 H   0  0  0  0  0  0  0  0  0  0  0  0
  1  2  1  0
  2  3  1  0
  2  4  1  0
  5  1  2  0
  1  6  1  0
  7  5  1  0
  5  8  1  0
  9  6  1  0
  6 10  2  0
 11  7  2  0
  7 12  1  0
 10 11  1  0
 10 13  1  0
 11 14  1  0
 12 15  1  0
 16 12  1  0
 12 17  1  1
 15 18  1  0
 19 16  1  0
 16 20  1  0
 16 21  1  6
 18 22  1  0
 18 23  1  0
 18 24  1  1
 23 19  1  0
 19 25  1  0
 19 26  1  1
 20 27  1  0
 22 28  1  0
 22 29  1  0
 22 30  1  0
 23 31  1  0
 23 32  1  6
 25 33  1  0
 28 34  1  0
 31 35  1  0
  2 36  1  0
  4 37  2  0
 38  4  1  0
 37 39  1  0
 37 40  1  0
 41 38  2  0
 38 42  1  0
 39 43  2  0
 39 44  1  0
 43 41  1  0
 41 45  1  0
 43 46  1  0
 46 47  1  0
 47 48  1  0
 47 49  1  0
 47 50  1  0
 48 51  1  0
 48 52  1  0
 48 53  1  0
 51 54  1  0
 54 55  1  0
 56 54  1  0
 54 57  1  0
 55 56  1  0
 55 58  1  0
 55 59  1  0
 56 60  1  0
 56 61  1  0
  3 62  1  0
M  END
>  <SMILES>  (1) 
OCC1OC(c2ccc(Cl)c(C(O)c3ccc(OCCOC4CC4)cc3)c2)C(O)C(O)C1O

>  <Molecular Weight>  (1) 
480.9

>  <Substrate_ID>  (1) 
MOL0024

>  <Substrate>  (1) 


>  <Substrate_SMILES>  (1) 
OCC1OC(c2ccc(Cl)c(Cc3ccc(OCCOC4CC4)cc3)c2)C(O)C(O)C1O

>  <Reaction>  (1) 
benzylic_hydroxylation_(c-CH2-CR),aliphatic hydroxylation

>  <Score>  (1) 
0.3099

>  <Reaction_Score>  (1) 
0.3024

>  <Bond_Score>  (1) 
0.3177

>  <Rank>  (1) 
1

>  <Subtype>  (1) 
REACTION

>  <Subtype_Scores>  (1) 
[REACTION] SOM_score: 0.3177, Reaction_score: 0.3024, Score: 0.3099


$$$$
