
     RDKit          2D

 95 98  0  0  0  0  0  0  0  0999 V2000
   -0.3481  -12.0933    0.0000 C   0  0  0  0  0  0  0  0  0 39  0  0
    0.4019  -10.7942    0.0000 N   0  0  0  0  0  0  0  0  0 11  0  0
   -0.3481   -9.4952    0.0000 C   0  0  0  0  0  0  0  0  0 32  0  0
   -1.0981  -13.3923    0.0000 C   0  0  0  0  0  0  0  0  0 42  0  0
   -1.6471  -11.3433    0.0000 H   0  0  0  0  0  0  0  0  0  0  0  0
    0.9510  -12.8433    0.0000 H   0  0  0  0  0  0  0  0  0  0  0  0
   -0.4880  -14.7626    0.0000 N   0  0  0  0  0  0  0  0  0 12  0  0
   -2.5899  -13.5491    0.0000 C   0  0  0  0  0  0  0  0  0 45  0  0
   -1.6027  -15.7663    0.0000 C   0  0  0  0  0  0  0  0  0 44  0  0
   -2.9017  -15.0163    0.0000 S   0  0  0  0  0  0  0  0  0  1  0  0
   -3.5936  -12.4344    0.0000 H   0  0  0  0  0  0  0  0  0  0  0  0
   -1.4459  -17.2581    0.0000 C   0  0  0  0  0  0  0  0  0 46  0  0
   -1.2891  -18.7499    0.0000 C   0  0  0  0  0  0  0  0  0 47  0  0
   -2.9377  -17.4149    0.0000 C   0  0  0  0  0  0  0  0  0 48  0  0
    0.0459  -17.1013    0.0000 H   0  0  0  0  0  0  0  0  0  0  0  0
   -1.1323  -20.2417    0.0000 H   0  0  0  0  0  0  0  0  0  0  0  0
    0.2027  -18.5931    0.0000 H   0  0  0  0  0  0  0  0  0  0  0  0
   -2.1521  -18.9492    0.0000 H   0  0  0  0  0  0  0  0  0  0  0  0
   -4.4295  -17.5717    0.0000 H   0  0  0  0  0  0  0  0  0  0  0  0
   -2.9532  -18.3005    0.0000 H   0  0  0  0  0  0  0  0  0  0  0  0
   -3.0945  -15.9231    0.0000 H   0  0  0  0  0  0  0  0  0  0  0  0
   -1.4334   -9.6285    0.0000 O   0  0  0  0  0  0  0  0  0  7  0  0
    0.4019   -8.1962    0.0000 N   0  0  0  0  0  0  0  0  0 10  0  0
   -0.3481   -6.8971    0.0000 C   0  0  0  0  0  0  0  0  0 20  0  0
    1.8907   -8.0133    0.0000 H   0  0  0  0  0  0  0  0  0  0  0  0
   -1.6471   -7.6471    0.0000 C   0  0  0  0  0  0  0  0  0 21  0  0
    0.9510   -6.1471    0.0000 C   0  0  0  0  0  0  0  0  0 22  0  0
   -0.8228   -5.7787    0.0000 H   0  0  0  0  0  0  0  0  0  0  0  0
   -2.9462   -8.3971    0.0000 C   0  0  0  0  0  0  0  0  0 25  0  0
   -2.3971   -6.3481    0.0000 C   0  0  0  0  0  0  0  0  0 26  0  0
   -1.3458   -8.6983    0.0000 H   0  0  0  0  0  0  0  0  0  0  0  0
    2.1489   -7.0499    0.0000 O   0  0  0  0  0  0  0  0  0  4  0  0
    0.9510   -4.6471    0.0000 N   0  0  0  0  0  0  0  0  0  8  0  0
   -4.2452   -9.1471    0.0000 H   0  0  0  0  0  0  0  0  0  0  0  0
   -3.4792   -7.6897    0.0000 H   0  0  0  0  0  0  0  0  0  0  0  0
   -2.3601   -9.7779    0.0000 H   0  0  0  0  0  0  0  0  0  0  0  0
   -3.1471   -5.0490    0.0000 H   0  0  0  0  0  0  0  0  0  0  0  0
   -3.2124   -6.6941    0.0000 H   0  0  0  0  0  0  0  0  0  0  0  0
   -1.4268   -5.6168    0.0000 H   0  0  0  0  0  0  0  0  0  0  0  0
    2.2500   -3.8971    0.0000 C   0  0  0  0  0  0  0  0  0 14  0  0
   -0.4298   -4.0611    0.0000 H   0  0  0  0  0  0  0  0  0  0  0  0
    3.0000   -5.1962    0.0000 C   0  0  0  0  0  0  0  0  0 15  0  0
    1.5000   -2.5981    0.0000 C   0  0  0  0  0  0  0  0  0 18  0  0
    3.5490   -3.1471    0.0000 H   0  0  0  0  0  0  0  0  0  0  0  0
    3.7500   -6.4952    0.0000 C   0  0  0  0  0  0  0  0  0 16  0  0
    1.9210   -6.2382    0.0000 H   0  0  0  0  0  0  0  0  0  0  0  0
    4.2990   -4.4462    0.0000 H   0  0  0  0  0  0  0  0  0  0  0  0
    0.7500   -1.2990    0.0000 C   0  0  0  0  0  0  0  0  0 23  0  0
    0.1192   -3.1841    0.0000 H   0  0  0  0  0  0  0  0  0  0  0  0
    2.7990   -1.8481    0.0000 H   0  0  0  0  0  0  0  0  0  0  0  0
    5.0490   -5.7452    0.0000 O   0  0  0  0  0  0  0  0  0  3  0  0
    4.5000   -7.7942    0.0000 C   0  0  0  0  0  0  0  0  0 17  0  0
    2.4510   -7.2452    0.0000 H   0  0  0  0  0  0  0  0  0  0  0  0
    1.5000    0.0000    0.0000 C   0  0  0  0  0  0  0  0  0 27  0  0
   -0.7500   -1.2990    0.0000 C   0  0  0  0  0  0  0  0  0 28  0  0
    6.4298   -6.3313    0.0000 H   0  0  0  0  0  0  0  0  0  0  0  0
    3.2010   -8.5442    0.0000 N   0  0  0  0  0  0  0  0  0  9  0  0
    5.2500   -9.0933    0.0000 C   0  0  0  0  0  0  0  0  0 19  0  0
    5.8808   -7.2082    0.0000 H   0  0  0  0  0  0  0  0  0  0  0  0
    0.7500    1.2990    0.0000 C   0  0  0  0  0  0  0  0  0 33  0  0
    3.0000    0.0000    0.0000 H   0  0  0  0  0  0  0  0  0  0  0  0
   -1.5000    0.0000    0.0000 C   0  0  0  0  0  0  0  0  0 34  0  0
   -1.5000   -2.5981    0.0000 H   0  0  0  0  0  0  0  0  0  0  0  0
    3.2010  -10.0442    0.0000 C   0  0  0  0  0  0  0  0  0 29  0  0
    1.9019   -7.7942    0.0000 H   0  0  0  0  0  0  0  0  0  0  0  0
    6.0000  -10.3923    0.0000 C   0  0  0  0  0  0  0  0  0 24  0  0
    6.5490   -8.3433    0.0000 H   0  0  0  0  0  0  0  0  0  0  0  0
    4.1710  -10.1353    0.0000 H   0  0  0  0  0  0  0  0  0  0  0  0
   -0.7500    1.2990    0.0000 C   0  0  0  0  0  0  0  0  0 37  0  0
    1.5000    2.5981    0.0000 H   0  0  0  0  0  0  0  0  0  0  0  0
   -3.0000    0.0000    0.0000 H   0  0  0  0  0  0  0  0  0  0  0  0
    4.5000  -10.7942    0.0000 O   0  0  0  0  0  0  0  0  0  5  0  0
    2.0030  -10.9470    0.0000 O   0  0  0  0  0  0  0  0  0  6  0  0
    5.2500  -11.6913    0.0000 C   0  0  0  0  0  0  0  0  0 30  0  0
    7.5000  -10.3923    0.0000 C   0  0  0  0  0  0  0  0  0 31  0  0
   -1.5000    2.5981    0.0000 H   0  0  0  0  0  0  0  0  0  0  0  0
    4.5000  -12.2942    0.0000 C   0  0  0  0  0  0  0  0  0 41  0  0
    6.0000  -12.9904    0.0000 C   0  0  0  0  0  0  0  0  0 35  0  0
    3.7500  -11.6913    0.0000 H   0  0  0  0  0  0  0  0  0  0  0  0
    8.2500  -11.6913    0.0000 C   0  0  0  0  0  0  0  0  0 36  0  0
    8.2500   -9.0933    0.0000 H   0  0  0  0  0  0  0  0  0  0  0  0
    4.5000  -13.7942    0.0000 C   0  0  0  0  0  0  0  0  0 43  0  0
    3.0000  -12.2942    0.0000 H   0  0  0  0  0  0  0  0  0  0  0  0
    5.9554  -12.6572    0.0000 H   0  0  0  0  0  0  0  0  0  0  0  0
    7.5000  -12.9904    0.0000 C   0  0  0  0  0  0  0  0  0 38  0  0
    5.5866  -14.4323    0.0000 H   0  0  0  0  0  0  0  0  0  0  0  0
    9.7500  -11.6913    0.0000 H   0  0  0  0  0  0  0  0  0  0  0  0
    5.7135  -14.6759    0.0000 S   0  0  0  0  0  0  0  0  0  2  0  0
    3.2865  -14.6759    0.0000 C   0  0  0  0  0  0  0  0  0 49  0  0
    8.2500  -14.2894    0.0000 H   0  0  0  0  0  0  0  0  0  0  0  0
    5.2500  -16.1025    0.0000 C   0  0  0  0  0  0  0  0  0 50  0  0
    3.7500  -16.1025    0.0000 N   0  0  0  0  0  0  0  0  0 13  0  0
    1.8599  -14.2124    0.0000 H   0  0  0  0  0  0  0  0  0  0  0  0
    6.1317  -17.3160    0.0000 H   0  0  0  0  0  0  0  0  0  0  0  0
    1.8907  -10.9771    0.0000 H   0  0  0  0  0  0  0  0  0  0  0  0
  1  2  1  0
  2  3  1  0
  4  1  1  0
  1  5  1  0
  1  6  1  0
  7  4  1  0
  4  8  2  0
  9  7  2  0
  8 10  1  0
  8 11  1  0
 10  9  1  0
  9 12  1  0
 12 13  1  0
 12 14  1  0
 12 15  1  0
 13 16  1  0
 13 17  1  0
 13 18  1  0
 14 19  1  0
 14 20  1  0
 14 21  1  0
  3 22  2  0
  3 23  1  0
 23 24  1  0
 23 25  1  0
 24 26  1  0
 24 27  1  0
 24 28  1  6
 26 29  1  0
 26 30  1  0
 26 31  1  0
 27 32  2  0
 27 33  1  0
 29 34  1  0
 29 35  1  0
 29 36  1  0
 30 37  1  0
 30 38  1  0
 30 39  1  0
 33 40  1  0
 33 41  1  0
 40 42  1  0
 40 43  1  0
 40 44  1  6
 42 45  1  0
 42 46  1  0
 42 47  1  0
 43 48  1  0
 43 49  1  0
 43 50  1  0
 45 51  1  0
 45 52  1  0
 45 53  1  1
 48 54  2  0
 55 48  1  0
 51 56  1  0
 52 57  1  0
 52 58  1  0
 52 59  1  1
 54 60  1  0
 54 61  1  0
 62 55  2  0
 55 63  1  0
 57 64  1  0
 57 65  1  0
 58 66  1  0
 58 67  1  0
 58 68  1  0
 60 69  2  0
 60 70  1  0
 69 62  1  0
 62 71  1  0
 64 72  1  0
 64 73  2  0
 66 74  2  0
 75 66  1  0
 69 76  1  0
 72 77  1  0
 74 78  1  0
 74 79  1  0
 80 75  2  0
 75 81  1  0
 77 82  1  0
 77 83  1  0
 77 84  1  0
 78 85  2  0
 78 86  1  0
 85 80  1  0
 80 87  1  0
 82 88  1  0
 89 82  2  0
 85 90  1  0
 88 91  1  0
 92 89  1  0
 89 93  1  0
 91 92  2  0
 91 94  1  0
  2 95  1  0
M  END
>  <SMILES>  (1) 
CC(C)c1nc(CNC(=O)NC(C(=O)NC(Cc2ccccc2)CC(O)C(Cc2ccccc2)NC(=O)OCc2cncs2)C(C)C)cs1

>  <Molecular Weight>  (1) 
706.9

>  <Substrate_ID>  (1) 
MOL0097

>  <Substrate>  (1) 


>  <Substrate_SMILES>  (1) 
CC(C)c1nc(CN(C)C(=O)NC(C(=O)NC(Cc2ccccc2)CC(O)C(Cc2ccccc2)NC(=O)OCc2cncs2)C(C)C)cs1

>  <Reaction>  (1) 
N-demethylation_(R-N(CR)CH3),N-demethylation_(tertiary_amine)

>  <Score>  (1) 
0.4001

>  <Reaction_Score>  (1) 
0.3861

>  <Bond_Score>  (1) 
0.4146

>  <Rank>  (1) 
1

>  <Subtype>  (1) 
REACTION

>  <Subtype_Scores>  (1) 
[REACTION] SOM_score: 0.4146, Reaction_score: 0.3861, Score: 0.4001


$$$$

     RDKit          2D

 99102  0  0  0  0  0  0  0  0999 V2000
   -2.9017  -15.0163    0.0000 C   0  0  0  0  0  0  0  0  0 44  0  0
   -4.2720  -15.6264    0.0000 C   0  0  0  0  0  0  0  0  0 46  0  0
   -3.6619  -16.9967    0.0000 O   0  0  0  0  0  0  0  0  0 51  0  0
   -5.6424  -16.2365    0.0000 C   0  0  0  0  0  0  0  0  0 47  0  0
   -1.6027  -15.7663    0.0000 S   0  0  0  0  0  0  0  0  0  1  0  0
   -2.5899  -13.5491    0.0000 N   0  0  0  0  0  0  0  0  0 12  0  0
   -0.4880  -14.7626    0.0000 C   0  0  0  0  0  0  0  0  0 45  0  0
   -1.0981  -13.3923    0.0000 C   0  0  0  0  0  0  0  0  0 42  0  0
    0.9793  -15.0745    0.0000 H   0  0  0  0  0  0  0  0  0  0  0  0
   -0.3481  -12.0933    0.0000 C   0  0  0  0  0  0  0  0  0 39  0  0
    0.4019  -10.7942    0.0000 N   0  0  0  0  0  0  0  0  0 11  0  0
   -1.6471  -11.3433    0.0000 H   0  0  0  0  0  0  0  0  0  0  0  0
    0.9510  -12.8433    0.0000 H   0  0  0  0  0  0  0  0  0  0  0  0
   -0.3481   -9.4952    0.0000 C   0  0  0  0  0  0  0  0  0 32  0  0
    1.9019  -10.7942    0.0000 C   0  0  0  0  0  0  0  0  0 40  0  0
   -1.4334   -9.6285    0.0000 O   0  0  0  0  0  0  0  0  0  7  0  0
    0.4019   -8.1962    0.0000 N   0  0  0  0  0  0  0  0  0 10  0  0
    3.3573  -11.1572    0.0000 H   0  0  0  0  0  0  0  0  0  0  0  0
    1.9019  -12.2942    0.0000 H   0  0  0  0  0  0  0  0  0  0  0  0
    1.9019   -9.2942    0.0000 H   0  0  0  0  0  0  0  0  0  0  0  0
   -0.3481   -6.8971    0.0000 C   0  0  0  0  0  0  0  0  0 20  0  0
    1.8907   -8.0133    0.0000 H   0  0  0  0  0  0  0  0  0  0  0  0
   -1.6471   -7.6471    0.0000 C   0  0  0  0  0  0  0  0  0 21  0  0
    0.9510   -6.1471    0.0000 C   0  0  0  0  0  0  0  0  0 22  0  0
   -0.6941   -6.0818    0.0000 H   0  0  0  0  0  0  0  0  0  0  0  0
   -2.9462   -8.3971    0.0000 C   0  0  0  0  0  0  0  0  0 25  0  0
   -2.3971   -6.3481    0.0000 C   0  0  0  0  0  0  0  0  0 26  0  0
   -1.3458   -8.6983    0.0000 H   0  0  0  0  0  0  0  0  0  0  0  0
    1.9213   -6.8783    0.0000 O   0  0  0  0  0  0  0  0  0  4  0  0
    0.9510   -4.6471    0.0000 N   0  0  0  0  0  0  0  0  0  8  0  0
   -4.2452   -9.1471    0.0000 H   0  0  0  0  0  0  0  0  0  0  0  0
   -3.4792   -7.6897    0.0000 H   0  0  0  0  0  0  0  0  0  0  0  0
   -2.3601   -9.7779    0.0000 H   0  0  0  0  0  0  0  0  0  0  0  0
   -3.1471   -5.0490    0.0000 H   0  0  0  0  0  0  0  0  0  0  0  0
   -3.2124   -6.6941    0.0000 H   0  0  0  0  0  0  0  0  0  0  0  0
   -1.6897   -5.8150    0.0000 H   0  0  0  0  0  0  0  0  0  0  0  0
    2.2500   -3.8971    0.0000 C   0  0  0  0  0  0  0  0  0 14  0  0
   -0.4298   -4.0611    0.0000 H   0  0  0  0  0  0  0  0  0  0  0  0
    3.0000   -5.1962    0.0000 C   0  0  0  0  0  0  0  0  0 15  0  0
    1.5000   -2.5981    0.0000 C   0  0  0  0  0  0  0  0  0 18  0  0
    3.5490   -3.1471    0.0000 H   0  0  0  0  0  0  0  0  0  0  0  0
    3.7500   -6.4952    0.0000 C   0  0  0  0  0  0  0  0  0 16  0  0
    2.1260   -6.0402    0.0000 H   0  0  0  0  0  0  0  0  0  0  0  0
    4.2990   -4.4462    0.0000 H   0  0  0  0  0  0  0  0  0  0  0  0
    0.7500   -1.2990    0.0000 C   0  0  0  0  0  0  0  0  0 23  0  0
    0.1192   -3.1841    0.0000 H   0  0  0  0  0  0  0  0  0  0  0  0
    2.7990   -1.8481    0.0000 H   0  0  0  0  0  0  0  0  0  0  0  0
    5.0490   -5.7452    0.0000 O   0  0  0  0  0  0  0  0  0  3  0  0
    4.5000   -7.7942    0.0000 C   0  0  0  0  0  0  0  0  0 17  0  0
    2.4510   -7.2452    0.0000 H   0  0  0  0  0  0  0  0  0  0  0  0
    1.5000    0.0000    0.0000 C   0  0  0  0  0  0  0  0  0 27  0  0
   -0.7500   -1.2990    0.0000 C   0  0  0  0  0  0  0  0  0 28  0  0
    6.4298   -6.3313    0.0000 H   0  0  0  0  0  0  0  0  0  0  0  0
    3.2010   -8.5442    0.0000 N   0  0  0  0  0  0  0  0  0  9  0  0
    5.2500   -9.0933    0.0000 C   0  0  0  0  0  0  0  0  0 19  0  0
    5.8808   -7.2082    0.0000 H   0  0  0  0  0  0  0  0  0  0  0  0
    0.7500    1.2990    0.0000 C   0  0  0  0  0  0  0  0  0 33  0  0
    3.0000    0.0000    0.0000 H   0  0  0  0  0  0  0  0  0  0  0  0
   -1.5000    0.0000    0.0000 C   0  0  0  0  0  0  0  0  0 34  0  0
   -1.5000   -2.5981    0.0000 H   0  0  0  0  0  0  0  0  0  0  0  0
    3.2010  -10.0442    0.0000 C   0  0  0  0  0  0  0  0  0 29  0  0
    1.9019   -7.7942    0.0000 H   0  0  0  0  0  0  0  0  0  0  0  0
    6.0000  -10.3923    0.0000 C   0  0  0  0  0  0  0  0  0 24  0  0
    6.5490   -8.3433    0.0000 H   0  0  0  0  0  0  0  0  0  0  0  0
    4.1710  -10.1353    0.0000 H   0  0  0  0  0  0  0  0  0  0  0  0
   -0.7500    1.2990    0.0000 C   0  0  0  0  0  0  0  0  0 37  0  0
    1.5000    2.5981    0.0000 H   0  0  0  0  0  0  0  0  0  0  0  0
   -3.0000    0.0000    0.0000 H   0  0  0  0  0  0  0  0  0  0  0  0
    4.5000  -10.7942    0.0000 O   0  0  0  0  0  0  0  0  0  5  0  0
    2.1220  -11.0863    0.0000 O   0  0  0  0  0  0  0  0  0  6  0  0
    5.2500  -11.6913    0.0000 C   0  0  0  0  0  0  0  0  0 30  0  0
    7.5000  -10.3923    0.0000 C   0  0  0  0  0  0  0  0  0 31  0  0
   -1.5000    2.5981    0.0000 H   0  0  0  0  0  0  0  0  0  0  0  0
    4.5000  -12.2942    0.0000 C   0  0  0  0  0  0  0  0  0 41  0  0
    6.0000  -12.9904    0.0000 C   0  0  0  0  0  0  0  0  0 35  0  0
    3.7500  -11.6913    0.0000 H   0  0  0  0  0  0  0  0  0  0  0  0
    8.2500  -11.6913    0.0000 C   0  0  0  0  0  0  0  0  0 36  0  0
    8.2500   -9.0933    0.0000 H   0  0  0  0  0  0  0  0  0  0  0  0
    4.5000  -13.7942    0.0000 C   0  0  0  0  0  0  0  0  0 43  0  0
    3.0000  -12.2942    0.0000 H   0  0  0  0  0  0  0  0  0  0  0  0
    5.9554  -12.6572    0.0000 H   0  0  0  0  0  0  0  0  0  0  0  0
    7.5000  -12.9904    0.0000 C   0  0  0  0  0  0  0  0  0 38  0  0
    5.5866  -14.4323    0.0000 H   0  0  0  0  0  0  0  0  0  0  0  0
    9.7500  -11.6913    0.0000 H   0  0  0  0  0  0  0  0  0  0  0  0
    5.7135  -14.6759    0.0000 S   0  0  0  0  0  0  0  0  0  2  0  0
    3.2865  -14.6759    0.0000 C   0  0  0  0  0  0  0  0  0 49  0  0
    8.2500  -14.2894    0.0000 H   0  0  0  0  0  0  0  0  0  0  0  0
    5.2500  -16.1025    0.0000 C   0  0  0  0  0  0  0  0  0 50  0  0
    3.7500  -16.1025    0.0000 N   0  0  0  0  0  0  0  0  0 13  0  0
    1.8599  -14.2124    0.0000 H   0  0  0  0  0  0  0  0  0  0  0  0
    6.1317  -17.3160    0.0000 H   0  0  0  0  0  0  0  0  0  0  0  0
   -4.8821  -14.2561    0.0000 C   0  0  0  0  0  0  0  0  0 48  0  0
   -5.4923  -12.8858    0.0000 H   0  0  0  0  0  0  0  0  0  0  0  0
   -6.3166  -14.6946    0.0000 H   0  0  0  0  0  0  0  0  0  0  0  0
   -3.5118  -13.6460    0.0000 H   0  0  0  0  0  0  0  0  0  0  0  0
   -7.0127  -16.8466    0.0000 H   0  0  0  0  0  0  0  0  0  0  0  0
   -5.2038  -17.6710    0.0000 H   0  0  0  0  0  0  0  0  0  0  0  0
   -6.4150  -14.9508    0.0000 H   0  0  0  0  0  0  0  0  0  0  0  0
   -4.3891  -18.3087    0.0000 H   0  0  0  0  0  0  0  0  0  0  0  0
  1  2  1  0
  2  3  1  0
  2  4  1  0
  5  1  1  0
  1  6  2  0
  7  5  1  0
  6  8  1  0
  8  7  2  0
  7  9  1  0
  8 10  1  0
 10 11  1  0
 10 12  1  0
 10 13  1  0
 11 14  1  0
 11 15  1  0
 14 16  2  0
 14 17  1  0
 15 18  1  0
 15 19  1  0
 15 20  1  0
 17 21  1  0
 17 22  1  0
 21 23  1  0
 21 24  1  0
 21 25  1  6
 23 26  1  0
 23 27  1  0
 23 28  1  0
 24 29  2  0
 24 30  1  0
 26 31  1  0
 26 32  1  0
 26 33  1  0
 27 34  1  0
 27 35  1  0
 27 36  1  0
 30 37  1  0
 30 38  1  0
 37 39  1  0
 37 40  1  0
 37 41  1  6
 39 42  1  0
 39 43  1  0
 39 44  1  0
 40 45  1  0
 40 46  1  0
 40 47  1  0
 42 48  1  0
 42 49  1  0
 42 50  1  1
 45 51  2  0
 52 45  1  0
 48 53  1  0
 49 54  1  0
 49 55  1  0
 49 56  1  1
 51 57  1  0
 51 58  1  0
 59 52  2  0
 52 60  1  0
 54 61  1  0
 54 62  1  0
 55 63  1  0
 55 64  1  0
 55 65  1  0
 57 66  2  0
 57 67  1  0
 66 59  1  0
 59 68  1  0
 61 69  1  0
 61 70  2  0
 63 71  2  0
 72 63  1  0
 66 73  1  0
 69 74  1  0
 71 75  1  0
 71 76  1  0
 77 72  2  0
 72 78  1  0
 74 79  1  0
 74 80  1  0
 74 81  1  0
 75 82  2  0
 75 83  1  0
 82 77  1  0
 77 84  1  0
 79 85  1  0
 86 79  2  0
 82 87  1  0
 85 88  1  0
 89 86  1  0
 86 90  1  0
 88 89  2  0
 88 91  1  0
  2 92  1  0
 92 93  1  0
 92 94  1  0
 92 95  1  0
  4 96  1  0
  4 97  1  0
  4 98  1  0
  3 99  1  0
M  END
>  <SMILES>  (2) 
CC(C)C(NC(=O)N(C)Cc1csc(C(C)(C)O)n1)C(=O)NC(Cc1ccccc1)CC(O)C(Cc1ccccc1)NC(=O)OCc1cncs1

>  <Molecular Weight>  (2) 
737.0

>  <Substrate_ID>  (2) 
MOL0097

>  <Substrate>  (2) 


>  <Substrate_SMILES>  (2) 
CC(C)c1nc(CN(C)C(=O)NC(C(=O)NC(Cc2ccccc2)CC(O)C(Cc2ccccc2)NC(=O)OCc2cncs2)C(C)C)cs1

>  <Reaction>  (2) 
benzylic_hydroxylation_(c-CH1-CH3),aliphatic hydroxylation

>  <Score>  (2) 
0.3595

>  <Reaction_Score>  (2) 
0.3753

>  <Bond_Score>  (2) 
0.3444

>  <Rank>  (2) 
2

>  <Subtype>  (2) 
REACTION

>  <Subtype_Scores>  (2) 
[REACTION] SOM_score: 0.3444, Reaction_score: 0.3753, Score: 0.3595


$$$$

     RDKit          2D

 99102  0  0  0  0  0  0  0  0999 V2000
    9.0702   -8.7008    0.0000 C   0  0  0  0  0  0  0  0  0 50  0  0
    9.6803  -10.0711    0.0000 O   0  0  0  0  0  0  0  0  0 51  0  0
    7.6029   -8.3889    0.0000 S   0  0  0  0  0  0  0  0  0  2  0  0
    9.8202   -7.4017    0.0000 N   0  0  0  0  0  0  0  0  0 13  0  0
    7.4462   -6.8971    0.0000 C   0  0  0  0  0  0  0  0  0 43  0  0
    8.8165   -6.2870    0.0000 C   0  0  0  0  0  0  0  0  0 49  0  0
    6.1471   -6.1471    0.0000 C   0  0  0  0  0  0  0  0  0 41  0  0
    9.1283   -4.8198    0.0000 H   0  0  0  0  0  0  0  0  0  0  0  0
    4.8481   -5.3971    0.0000 O   0  0  0  0  0  0  0  0  0  5  0  0
    6.8971   -4.8481    0.0000 H   0  0  0  0  0  0  0  0  0  0  0  0
    5.5611   -7.5279    0.0000 H   0  0  0  0  0  0  0  0  0  0  0  0
    4.8481   -3.8971    0.0000 C   0  0  0  0  0  0  0  0  0 29  0  0
    3.5490   -3.1471    0.0000 N   0  0  0  0  0  0  0  0  0  9  0  0
    6.1471   -3.1471    0.0000 O   0  0  0  0  0  0  0  0  0  6  0  0
    2.2500   -3.8971    0.0000 C   0  0  0  0  0  0  0  0  0 17  0  0
    3.7319   -1.6583    0.0000 H   0  0  0  0  0  0  0  0  0  0  0  0
    3.0000   -5.1962    0.0000 C   0  0  0  0  0  0  0  0  0 16  0  0
    1.5000   -2.5981    0.0000 C   0  0  0  0  0  0  0  0  0 19  0  0
    0.9510   -4.6471    0.0000 H   0  0  0  0  0  0  0  0  0  0  0  0
    3.7500   -6.4952    0.0000 C   0  0  0  0  0  0  0  0  0 15  0  0
    1.7010   -5.9462    0.0000 O   0  0  0  0  0  0  0  0  0  3  0  0
    4.0512   -4.8948    0.0000 H   0  0  0  0  0  0  0  0  0  0  0  0
    0.7500   -1.2990    0.0000 C   0  0  0  0  0  0  0  0  0 24  0  0
    2.6979   -1.6953    0.0000 H   0  0  0  0  0  0  0  0  0  0  0  0
    0.2010   -3.3481    0.0000 H   0  0  0  0  0  0  0  0  0  0  0  0
    4.5000   -7.7942    0.0000 C   0  0  0  0  0  0  0  0  0 14  0  0
    4.5163   -6.2755    0.0000 H   0  0  0  0  0  0  0  0  0  0  0  0
    2.4510   -7.2452    0.0000 H   0  0  0  0  0  0  0  0  0  0  0  0
    1.3380   -7.4016    0.0000 H   0  0  0  0  0  0  0  0  0  0  0  0
   -0.7500   -1.2990    0.0000 C   0  0  0  0  0  0  0  0  0 30  0  0
    1.5000   -0.0000    0.0000 C   0  0  0  0  0  0  0  0  0 31  0  0
    3.2010   -8.5442    0.0000 N   0  0  0  0  0  0  0  0  0  8  0  0
    5.2500   -9.0933    0.0000 C   0  0  0  0  0  0  0  0  0 18  0  0
    5.8808   -7.2082    0.0000 H   0  0  0  0  0  0  0  0  0  0  0  0
   -1.5000   -0.0000    0.0000 C   0  0  0  0  0  0  0  0  0 35  0  0
   -1.5000   -2.5981    0.0000 H   0  0  0  0  0  0  0  0  0  0  0  0
    0.7500    1.2990    0.0000 C   0  0  0  0  0  0  0  0  0 36  0  0
    3.0000   -0.0000    0.0000 H   0  0  0  0  0  0  0  0  0  0  0  0
    3.2010  -10.0442    0.0000 C   0  0  0  0  0  0  0  0  0 22  0  0
    1.7590   -8.1309    0.0000 H   0  0  0  0  0  0  0  0  0  0  0  0
    6.0000  -10.3923    0.0000 C   0  0  0  0  0  0  0  0  0 23  0  0
    4.1710  -10.1353    0.0000 H   0  0  0  0  0  0  0  0  0  0  0  0
    6.5490   -8.3433    0.0000 H   0  0  0  0  0  0  0  0  0  0  0  0
   -0.7500    1.2990    0.0000 C   0  0  0  0  0  0  0  0  0 38  0  0
   -3.0000   -0.0000    0.0000 H   0  0  0  0  0  0  0  0  0  0  0  0
    1.5000    2.5981    0.0000 H   0  0  0  0  0  0  0  0  0  0  0  0
    1.9019  -10.7942    0.0000 C   0  0  0  0  0  0  0  0  0 20  0  0
    4.5000  -10.7942    0.0000 O   0  0  0  0  0  0  0  0  0  4  0  0
    5.2500  -11.6913    0.0000 C   0  0  0  0  0  0  0  0  0 27  0  0
    7.5000  -10.3923    0.0000 C   0  0  0  0  0  0  0  0  0 28  0  0
   -1.5000    2.5981    0.0000 H   0  0  0  0  0  0  0  0  0  0  0  0
    2.6519  -12.0933    0.0000 N   0  0  0  0  0  0  0  0  0 10  0  0
    0.6029  -11.5442    0.0000 C   0  0  0  0  0  0  0  0  0 21  0  0
    1.3159   -9.4135    0.0000 H   0  0  0  0  0  0  0  0  0  0  0  0
    6.0000  -12.9904    0.0000 C   0  0  0  0  0  0  0  0  0 33  0  0
    3.7612  -11.8742    0.0000 H   0  0  0  0  0  0  0  0  0  0  0  0
    8.2500  -11.6913    0.0000 C   0  0  0  0  0  0  0  0  0 34  0  0
    8.2500   -9.0933    0.0000 H   0  0  0  0  0  0  0  0  0  0  0  0
    1.9019  -13.3923    0.0000 C   0  0  0  0  0  0  0  0  0 32  0  0
    4.1407  -12.2761    0.0000 H   0  0  0  0  0  0  0  0  0  0  0  0
   -0.6962  -12.2942    0.0000 C   0  0  0  0  0  0  0  0  0 25  0  0
   -0.1471  -10.2452    0.0000 C   0  0  0  0  0  0  0  0  0 26  0  0
    1.0163  -12.9861    0.0000 H   0  0  0  0  0  0  0  0  0  0  0  0
    7.5000  -12.9904    0.0000 C   0  0  0  0  0  0  0  0  0 37  0  0
    5.4139  -14.3712    0.0000 H   0  0  0  0  0  0  0  0  0  0  0  0
    9.7500  -11.6913    0.0000 H   0  0  0  0  0  0  0  0  0  0  0  0
    2.6519  -14.6913    0.0000 N   0  0  0  0  0  0  0  0  0 11  0  0
    0.4131  -13.5751    0.0000 O   0  0  0  0  0  0  0  0  0  7  0  0
   -1.9952  -13.0442    0.0000 H   0  0  0  0  0  0  0  0  0  0  0  0
   -0.1101  -13.6750    0.0000 H   0  0  0  0  0  0  0  0  0  0  0  0
   -1.5989  -11.0963    0.0000 H   0  0  0  0  0  0  0  0  0  0  0  0
   -0.8971   -8.9462    0.0000 H   0  0  0  0  0  0  0  0  0  0  0  0
   -1.5279  -10.8313    0.0000 H   0  0  0  0  0  0  0  0  0  0  0  0
    1.0508   -9.3424    0.0000 H   0  0  0  0  0  0  0  0  0  0  0  0
    8.2500  -14.2894    0.0000 H   0  0  0  0  0  0  0  0  0  0  0  0
    1.9019  -15.9904    0.0000 C   0  0  0  0  0  0  0  0  0 39  0  0
    4.1519  -14.6913    0.0000 C   0  0  0  0  0  0  0  0  0 40  0  0
    1.1519  -17.2894    0.0000 C   0  0  0  0  0  0  0  0  0 42  0  0
    0.6029  -15.2404    0.0000 H   0  0  0  0  0  0  0  0  0  0  0  0
    3.2010  -16.7404    0.0000 H   0  0  0  0  0  0  0  0  0  0  0  0
    5.6407  -14.8742    0.0000 H   0  0  0  0  0  0  0  0  0  0  0  0
    4.1519  -16.1913    0.0000 H   0  0  0  0  0  0  0  0  0  0  0  0
    4.1519  -13.1913    0.0000 H   0  0  0  0  0  0  0  0  0  0  0  0
    1.7620  -18.6597    0.0000 N   0  0  0  0  0  0  0  0  0 12  0  0
   -0.3399  -17.4462    0.0000 C   0  0  0  0  0  0  0  0  0 45  0  0
    0.6473  -19.6634    0.0000 C   0  0  0  0  0  0  0  0  0 44  0  0
   -0.6517  -18.9134    0.0000 S   0  0  0  0  0  0  0  0  0  1  0  0
   -1.3436  -16.3315    0.0000 H   0  0  0  0  0  0  0  0  0  0  0  0
    0.8041  -21.1552    0.0000 C   0  0  0  0  0  0  0  0  0 46  0  0
    0.9609  -22.6470    0.0000 C   0  0  0  0  0  0  0  0  0 47  0  0
   -0.6877  -21.3120    0.0000 C   0  0  0  0  0  0  0  0  0 48  0  0
    2.2959  -20.9984    0.0000 H   0  0  0  0  0  0  0  0  0  0  0  0
    1.1177  -24.1388    0.0000 H   0  0  0  0  0  0  0  0  0  0  0  0
    2.4527  -22.4902    0.0000 H   0  0  0  0  0  0  0  0  0  0  0  0
   -0.5006  -22.9845    0.0000 H   0  0  0  0  0  0  0  0  0  0  0  0
   -2.1795  -21.4688    0.0000 H   0  0  0  0  0  0  0  0  0  0  0  0
   -0.7139  -22.8118    0.0000 H   0  0  0  0  0  0  0  0  0  0  0  0
   -0.8445  -19.8202    0.0000 H   0  0  0  0  0  0  0  0  0  0  0  0
   11.1721  -10.2279    0.0000 H   0  0  0  0  0  0  0  0  0  0  0  0
  1  2  1  0
  3  1  1  0
  1  4  2  0
  5  3  1  0
  4  6  1  0
  7  5  1  0
  6  5  2  0
  6  8  1  0
  9  7  1  0
  7 10  1  0
  7 11  1  0
 12  9  1  0
 13 12  1  0
 12 14  2  0
 15 13  1  0
 13 16  1  0
 17 15  1  0
 15 18  1  0
 15 19  1  1
 20 17  1  0
 17 21  1  0
 17 22  1  1
 18 23  1  0
 18 24  1  0
 18 25  1  0
 26 20  1  0
 20 27  1  0
 20 28  1  0
 21 29  1  0
 23 30  2  0
 31 23  1  0
 32 26  1  0
 26 33  1  0
 26 34  1  1
 30 35  1  0
 30 36  1  0
 37 31  2  0
 31 38  1  0
 39 32  1  0
 32 40  1  0
 33 41  1  0
 33 42  1  0
 33 43  1  0
 35 44  2  0
 35 45  1  0
 44 37  1  0
 37 46  1  0
 47 39  1  0
 39 48  2  0
 41 49  2  0
 50 41  1  0
 44 51  1  0
 52 47  1  0
 47 53  1  0
 47 54  1  6
 49 55  1  0
 49 56  1  0
 57 50  2  0
 50 58  1  0
 59 52  1  0
 52 60  1  0
 53 61  1  0
 53 62  1  0
 53 63  1  0
 55 64  2  0
 55 65  1  0
 64 57  1  0
 57 66  1  0
 67 59  1  0
 59 68  2  0
 61 69  1  0
 61 70  1  0
 61 71  1  0
 62 72  1  0
 62 73  1  0
 62 74  1  0
 64 75  1  0
 76 67  1  0
 67 77  1  0
 78 76  1  0
 76 79  1  0
 76 80  1  0
 77 81  1  0
 77 82  1  0
 77 83  1  0
 84 78  1  0
 78 85  2  0
 86 84  2  0
 85 87  1  0
 85 88  1  0
 87 86  1  0
 86 89  1  0
 89 90  1  0
 89 91  1  0
 89 92  1  0
 90 93  1  0
 90 94  1  0
 90 95  1  0
 91 96  1  0
 91 97  1  0
 91 98  1  0
  2 99  1  0
M  END
>  <SMILES>  (3) 
CC(C)c1nc(CN(C)C(=O)NC(C(=O)NC(Cc2ccccc2)CC(O)C(Cc2ccccc2)NC(=O)OCc2cnc(O)s2)C(C)C)cs1

>  <Molecular Weight>  (3) 
737.0

>  <Substrate_ID>  (3) 
MOL0097

>  <Substrate>  (3) 


>  <Substrate_SMILES>  (3) 
CC(C)c1nc(CN(C)C(=O)NC(C(=O)NC(Cc2ccccc2)CC(O)C(Cc2ccccc2)NC(=O)OCc2cncs2)C(C)C)cs1

>  <Reaction>  (3) 
aromatic_hydroxylation_(sulfur_containing_5ring),aromatic hydroxylation

>  <Score>  (3) 
0.1137

>  <Reaction_Score>  (3) 
0.1011

>  <Bond_Score>  (3) 
0.1279

>  <Rank>  (3) 
3

>  <Subtype>  (3) 
REACTION

>  <Subtype_Scores>  (3) 
[REACTION] SOM_score: 0.1279, Reaction_score: 0.1011, Score: 0.1137


$$$$
