
     RDKit          2D

 63 67  0  0  0  0  0  0  0  0999 V2000
   10.8714    0.5201    0.0000 N   0  0  0  0  0  0  0  0  0  8  0  0
    9.4448    0.0565    0.0000 C   0  0  0  0  0  0  0  0  0 22  0  0
   11.1832    1.9873    0.0000 C   0  0  0  0  0  0  0  0  0 23  0  0
    8.3301    1.0602    0.0000 C   0  0  0  0  0  0  0  0  0 24  0  0
   10.1490   -1.2679    0.0000 H   0  0  0  0  0  0  0  0  0  0  0  0
    8.2628   -0.8670    0.0000 H   0  0  0  0  0  0  0  0  0  0  0  0
   10.0685    2.9910    0.0000 C   0  0  0  0  0  0  0  0  0 25  0  0
   11.9781    3.2594    0.0000 H   0  0  0  0  0  0  0  0  0  0  0  0
   12.5740    1.4254    0.0000 H   0  0  0  0  0  0  0  0  0  0  0  0
    8.6419    2.5275    0.0000 N   0  0  0  0  0  0  0  0  0  9  0  0
    7.5352   -0.2118    0.0000 H   0  0  0  0  0  0  0  0  0  0  0  0
    6.8812    1.4484    0.0000 H   0  0  0  0  0  0  0  0  0  0  0  0
    9.5310    4.3914    0.0000 H   0  0  0  0  0  0  0  0  0  0  0  0
   11.2505    3.9145    0.0000 H   0  0  0  0  0  0  0  0  0  0  0  0
    7.5272    3.5312    0.0000 C   0  0  0  0  0  0  0  0  0 26  0  0
    6.4125    4.5348    0.0000 C   0  0  0  0  0  0  0  0  0 27  0  0
    8.3876    4.7599    0.0000 H   0  0  0  0  0  0  0  0  0  0  0  0
    6.3951    2.5471    0.0000 H   0  0  0  0  0  0  0  0  0  0  0  0
    6.7244    6.0021    0.0000 C   0  0  0  0  0  0  0  0  0 16  0  0
    4.9859    4.0713    0.0000 C   0  0  0  0  0  0  0  0  0 15  0  0
    5.6097    7.0058    0.0000 N   0  0  0  0  0  0  0  0  0  3  0  0
    8.1510    6.4656    0.0000 H   0  0  0  0  0  0  0  0  0  0  0  0
    3.8712    5.0750    0.0000 C   0  0  0  0  0  0  0  0  0 17  0  0
    4.6741    2.6041    0.0000 H   0  0  0  0  0  0  0  0  0  0  0  0
    4.1831    6.5422    0.0000 C   0  0  0  0  0  0  0  0  0 29  0  0
    2.4446    4.6115    0.0000 H   0  0  0  0  0  0  0  0  0  0  0  0
    3.0684    7.5459    0.0000 N   0  0  0  0  0  0  0  0  0  7  0  0
    1.6418    7.0824    0.0000 C   0  0  0  0  0  0  0  0  0 30  0  0
    3.3802    9.0132    0.0000 H   0  0  0  0  0  0  0  0  0  0  0  0
    0.5271    8.0861    0.0000 N   0  0  0  0  0  0  0  0  0  4  0  0
    1.3299    5.6152    0.0000 N   0  0  0  0  0  0  0  0  0  5  0  0
   -0.8995    7.6226    0.0000 C   0  0  0  0  0  0  0  0  0 18  0  0
   -0.0967    5.1517    0.0000 C   0  0  0  0  0  0  0  0  0 32  0  0
   -1.2114    6.1554    0.0000 C   0  0  0  0  0  0  0  0  0 31  0  0
   -2.0143    8.6263    0.0000 H   0  0  0  0  0  0  0  0  0  0  0  0
   -0.4086    3.6844    0.0000 C   0  0  0  0  0  0  0  0  0 28  0  0
   -2.6380    5.6918    0.0000 F   0  0  0  0  0  0  0  0  0  1  0  0
   -1.8351    3.2209    0.0000 C   0  0  0  0  0  0  0  0  0 19  0  0
    0.7062    2.6807    0.0000 C   0  0  0  0  0  0  0  0  0 20  0  0
   -2.1470    1.7537    0.0000 C   0  0  0  0  0  0  0  0  0 33  0  0
   -2.9499    4.2246    0.0000 H   0  0  0  0  0  0  0  0  0  0  0  0
    0.3943    1.2135    0.0000 C   0  0  0  0  0  0  0  0  0 36  0  0
    2.0656    3.3147    0.0000 H   0  0  0  0  0  0  0  0  0  0  0  0
   -3.5736    1.2902    0.0000 F   0  0  0  0  0  0  0  0  0  2  0  0
   -1.0323    0.7500    0.0000 C   0  0  0  0  0  0  0  0  0 35  0  0
    1.2760    0.0000    0.0000 N   0  0  0  0  0  0  0  0  0 10  0  0
   -1.0323   -0.7500    0.0000 N   0  0  0  0  0  0  0  0  0  6  0  0
    0.3943   -1.2135    0.0000 C   0  0  0  0  0  0  0  0  0 34  0  0
    2.7760    0.0000    0.0000 C   0  0  0  0  0  0  0  0  0 37  0  0
    0.8578   -2.6401    0.0000 C   0  0  0  0  0  0  0  0  0 12  0  0
    2.7760    1.5000    0.0000 C   0  0  0  0  0  0  0  0  0 13  0  0
    2.7760   -1.5000    0.0000 C   0  0  0  0  0  0  0  0  0 14  0  0
    4.2760    0.0000    0.0000 H   0  0  0  0  0  0  0  0  0  0  0  0
    1.3213   -4.0667    0.0000 H   0  0  0  0  0  0  0  0  0  0  0  0
   -0.5688   -3.1036    0.0000 H   0  0  0  0  0  0  0  0  0  0  0  0
    2.2844   -2.1766    0.0000 H   0  0  0  0  0  0  0  0  0  0  0  0
    2.9588    2.9888    0.0000 H   0  0  0  0  0  0  0  0  0  0  0  0
    4.2760    1.5000    0.0000 H   0  0  0  0  0  0  0  0  0  0  0  0
    1.2760    1.5000    0.0000 H   0  0  0  0  0  0  0  0  0  0  0  0
    2.7760   -3.0000    0.0000 H   0  0  0  0  0  0  0  0  0  0  0  0
    4.2760   -1.5000    0.0000 H   0  0  0  0  0  0  0  0  0  0  0  0
    1.2760   -1.5000    0.0000 H   0  0  0  0  0  0  0  0  0  0  0  0
   11.9861   -0.4836    0.0000 H   0  0  0  0  0  0  0  0  0  0  0  0
  2  1  1  0
  1  3  1  0
  4  2  1  0
  2  5  1  0
  2  6  1  0
  3  7  1  0
  3  8  1  0
  3  9  1  0
 10  4  1  0
  4 11  1  0
  4 12  1  0
  7 10  1  0
  7 13  1  0
  7 14  1  0
 15 10  1  0
 16 15  1  0
 15 17  1  0
 15 18  1  0
 19 16  2  0
 16 20  1  0
 21 19  1  0
 19 22  1  0
 20 23  2  0
 20 24  1  0
 25 21  2  0
 23 25  1  0
 23 26  1  0
 27 25  1  0
 28 27  1  0
 27 29  1  0
 30 28  2  0
 28 31  1  0
 32 30  1  0
 31 33  2  0
 34 32  2  0
 32 35  1  0
 33 36  1  0
 33 34  1  0
 37 34  1  0
 36 38  2  0
 39 36  1  0
 38 40  1  0
 38 41  1  0
 42 39  2  0
 39 43  1  0
 40 44  1  0
 40 45  2  0
 46 42  1  0
 42 45  1  0
 45 47  1  0
 48 46  1  0
 46 49  1  0
 47 48  2  0
 48 50  1  0
 49 51  1  0
 49 52  1  0
 49 53  1  0
 50 54  1  0
 50 55  1  0
 50 56  1  0
 51 57  1  0
 51 58  1  0
 51 59  1  0
 52 60  1  0
 52 61  1  0
 52 62  1  0
  1 63  1  0
M  END
>  <SMILES>  (1) 
Cc1nc2c(F)cc(-c3nc(Nc4ccc(CN5CCNCC5)cn4)ncc3F)cc2n1C(C)C

>  <Molecular Weight>  (1) 
478.6

>  <Substrate_ID>  (1) 
MOL0056

>  <Substrate>  (1) 


>  <Substrate_SMILES>  (1) 
CCN1CCN(Cc2ccc(Nc3ncc(F)c(-c4cc(F)c5nc(C)n(C(C)C)c5c4)n3)nc2)CC1

>  <Reaction>  (1) 
N-dealkylation_(tertiaryN-CH2-alkyl)

>  <Score>  (1) 
0.6983

>  <Reaction_Score>  (1) 
0.6822

>  <Bond_Score>  (1) 
0.7147

>  <Rank>  (1) 
1

>  <Subtype>  (1) 
REACTION

>  <Subtype_Scores>  (1) 
[REACTION] SOM_score: 0.7147, Reaction_score: 0.6822, Score: 0.6983


$$$$

     RDKit          2D

 70 74  0  0  0  0  0  0  0  0999 V2000
    1.2760    0.0000    0.0000 C   0  0  0  0  0  0  0  0  0 34  0  0
    2.7760    0.0000    0.0000 C   0  0  0  0  0  0  0  0  0 12  0  0
    4.2760    0.0000    0.0000 O   0  0  0  0  0  0  0  0  0 38  0  0
    0.3943    1.2135    0.0000 N   0  0  0  0  0  0  0  0  0  6  0  0
    0.3943   -1.2135    0.0000 N   0  0  0  0  0  0  0  0  0 10  0  0
   -1.0323    0.7500    0.0000 C   0  0  0  0  0  0  0  0  0 35  0  0
    0.8578   -2.6401    0.0000 C   0  0  0  0  0  0  0  0  0 37  0  0
   -1.0323   -0.7500    0.0000 C   0  0  0  0  0  0  0  0  0 36  0  0
   -2.3313    1.5000    0.0000 C   0  0  0  0  0  0  0  0  0 33  0  0
   -0.5688   -3.1036    0.0000 C   0  0  0  0  0  0  0  0  0 13  0  0
    2.2844   -2.1766    0.0000 C   0  0  0  0  0  0  0  0  0 14  0  0
    1.3213   -4.0667    0.0000 H   0  0  0  0  0  0  0  0  0  0  0  0
   -2.3313   -1.5000    0.0000 C   0  0  0  0  0  0  0  0  0 20  0  0
   -3.6304    0.7500    0.0000 C   0  0  0  0  0  0  0  0  0 19  0  0
   -2.3313    3.0000    0.0000 F   0  0  0  0  0  0  0  0  0  2  0  0
   -1.9282   -3.7376    0.0000 H   0  0  0  0  0  0  0  0  0  0  0  0
   -0.1052   -4.5302    0.0000 H   0  0  0  0  0  0  0  0  0  0  0  0
   -1.0323   -1.6771    0.0000 H   0  0  0  0  0  0  0  0  0  0  0  0
    3.7110   -1.7131    0.0000 H   0  0  0  0  0  0  0  0  0  0  0  0
    2.7479   -3.6032    0.0000 H   0  0  0  0  0  0  0  0  0  0  0  0
    1.8209   -0.7500    0.0000 H   0  0  0  0  0  0  0  0  0  0  0  0
   -3.6304   -0.7500    0.0000 C   0  0  0  0  0  0  0  0  0 28  0  0
   -2.5142   -2.9888    0.0000 H   0  0  0  0  0  0  0  0  0  0  0  0
   -4.9294    1.5000    0.0000 H   0  0  0  0  0  0  0  0  0  0  0  0
   -4.9294   -1.5000    0.0000 C   0  0  0  0  0  0  0  0  0 32  0  0
   -6.2284   -0.7500    0.0000 N   0  0  0  0  0  0  0  0  0  5  0  0
   -4.9294   -3.0000    0.0000 C   0  0  0  0  0  0  0  0  0 31  0  0
   -7.5275   -1.5000    0.0000 C   0  0  0  0  0  0  0  0  0 30  0  0
   -3.6304   -3.7500    0.0000 F   0  0  0  0  0  0  0  0  0  1  0  0
   -6.2284   -3.7500    0.0000 C   0  0  0  0  0  0  0  0  0 18  0  0
   -7.5275   -3.0000    0.0000 N   0  0  0  0  0  0  0  0  0  4  0  0
   -8.8265   -0.7500    0.0000 N   0  0  0  0  0  0  0  0  0  7  0  0
   -6.2284   -5.2500    0.0000 H   0  0  0  0  0  0  0  0  0  0  0  0
   -8.8265    0.7500    0.0000 C   0  0  0  0  0  0  0  0  0 29  0  0
  -10.1256   -1.5000    0.0000 H   0  0  0  0  0  0  0  0  0  0  0  0
   -7.5275    1.5000    0.0000 N   0  0  0  0  0  0  0  0  0  3  0  0
  -10.1256    1.5000    0.0000 C   0  0  0  0  0  0  0  0  0 17  0  0
   -7.5275    3.0000    0.0000 C   0  0  0  0  0  0  0  0  0 16  0  0
  -10.1256    3.0000    0.0000 C   0  0  0  0  0  0  0  0  0 15  0  0
  -11.4246    0.7500    0.0000 H   0  0  0  0  0  0  0  0  0  0  0  0
   -8.8265    3.7500    0.0000 C   0  0  0  0  0  0  0  0  0 27  0  0
   -6.2284    3.7500    0.0000 H   0  0  0  0  0  0  0  0  0  0  0  0
  -11.4246    3.7500    0.0000 H   0  0  0  0  0  0  0  0  0  0  0  0
   -8.8265    5.2500    0.0000 C   0  0  0  0  0  0  0  0  0 26  0  0
   -8.8265    6.7500    0.0000 N   0  0  0  0  0  0  0  0  0  9  0  0
   -7.3377    5.0672    0.0000 H   0  0  0  0  0  0  0  0  0  0  0  0
  -10.3153    5.0672    0.0000 H   0  0  0  0  0  0  0  0  0  0  0  0
   -7.5275    7.5000    0.0000 C   0  0  0  0  0  0  0  0  0 24  0  0
  -10.1256    7.5000    0.0000 C   0  0  0  0  0  0  0  0  0 25  0  0
   -7.5275    9.0000    0.0000 C   0  0  0  0  0  0  0  0  0 22  0  0
   -6.0503    7.7605    0.0000 H   0  0  0  0  0  0  0  0  0  0  0  0
   -6.8465    6.1635    0.0000 H   0  0  0  0  0  0  0  0  0  0  0  0
  -10.1256    9.0000    0.0000 C   0  0  0  0  0  0  0  0  0 23  0  0
  -10.8066    6.1635    0.0000 H   0  0  0  0  0  0  0  0  0  0  0  0
  -11.6028    7.7605    0.0000 H   0  0  0  0  0  0  0  0  0  0  0  0
   -8.8265    9.7500    0.0000 N   0  0  0  0  0  0  0  0  0  8  0  0
   -6.8465   10.3365    0.0000 H   0  0  0  0  0  0  0  0  0  0  0  0
   -6.0503    8.7395    0.0000 H   0  0  0  0  0  0  0  0  0  0  0  0
  -11.6028    8.7395    0.0000 H   0  0  0  0  0  0  0  0  0  0  0  0
  -10.8066   10.3365    0.0000 H   0  0  0  0  0  0  0  0  0  0  0  0
   -8.8265   11.2500    0.0000 C   0  0  0  0  0  0  0  0  0 21  0  0
   -8.8265   12.7500    0.0000 C   0  0  0  0  0  0  0  0  0 11  0  0
  -10.3153   11.4328    0.0000 H   0  0  0  0  0  0  0  0  0  0  0  0
   -7.3377   11.4328    0.0000 H   0  0  0  0  0  0  0  0  0  0  0  0
   -8.8265   14.2500    0.0000 H   0  0  0  0  0  0  0  0  0  0  0  0
  -10.3265   12.7500    0.0000 H   0  0  0  0  0  0  0  0  0  0  0  0
   -7.3265   12.7500    0.0000 H   0  0  0  0  0  0  0  0  0  0  0  0
    2.7760   -1.5000    0.0000 H   0  0  0  0  0  0  0  0  0  0  0  0
    2.7760    1.5000    0.0000 H   0  0  0  0  0  0  0  0  0  0  0  0
    5.0260    1.2990    0.0000 H   0  0  0  0  0  0  0  0  0  0  0  0
  1  2  1  0
  2  3  1  0
  4  1  2  0
  1  5  1  0
  6  4  1  0
  5  7  1  0
  5  8  1  0
  9  6  2  0
  8  6  1  0
  7 10  1  0
  7 11  1  0
  7 12  1  0
  8 13  2  0
 14  9  1  0
  9 15  1  0
 10 16  1  0
 10 17  1  0
 10 18  1  0
 11 19  1  0
 11 20  1  0
 11 21  1  0
 13 22  1  0
 13 23  1  0
 22 14  2  0
 14 24  1  0
 25 22  1  0
 26 25  2  0
 25 27  1  0
 28 26  1  0
 29 27  1  0
 27 30  2  0
 31 28  2  0
 28 32  1  0
 30 31  1  0
 30 33  1  0
 32 34  1  0
 32 35  1  0
 34 36  2  0
 37 34  1  0
 36 38  1  0
 39 37  2  0
 37 40  1  0
 38 41  2  0
 38 42  1  0
 41 39  1  0
 39 43  1  0
 41 44  1  0
 44 45  1  0
 44 46  1  0
 44 47  1  0
 45 48  1  0
 49 45  1  0
 48 50  1  0
 48 51  1  0
 48 52  1  0
 53 49  1  0
 49 54  1  0
 49 55  1  0
 50 56  1  0
 50 57  1  0
 50 58  1  0
 56 53  1  0
 53 59  1  0
 53 60  1  0
 56 61  1  0
 61 62  1  0
 61 63  1  0
 61 64  1  0
 62 65  1  0
 62 66  1  0
 62 67  1  0
  2 68  1  0
  2 69  1  0
  3 70  1  0
M  END
>  <SMILES>  (2) 
CCN1CCN(Cc2ccc(Nc3ncc(F)c(-c4cc(F)c5nc(CO)n(C(C)C)c5c4)n3)nc2)CC1

>  <Molecular Weight>  (2) 
522.6

>  <Substrate_ID>  (2) 
MOL0056

>  <Substrate>  (2) 


>  <Substrate_SMILES>  (2) 
CCN1CCN(Cc2ccc(Nc3ncc(F)c(-c4cc(F)c5nc(C)n(C(C)C)c5c4)n3)nc2)CC1

>  <Reaction>  (2) 
benzylic_hydroxylation_(c-CH3),aliphatic hydroxylation

>  <Score>  (2) 
0.3636

>  <Reaction_Score>  (2) 
0.3754

>  <Bond_Score>  (2) 
0.3522

>  <Rank>  (2) 
2

>  <Subtype>  (2) 
REACTION

>  <Subtype_Scores>  (2) 
[REACTION] SOM_score: 0.3522, Reaction_score: 0.3754, Score: 0.3636


$$$$

     RDKit          2D

 22 22  0  0  0  0  0  0  0  0999 V2000
    1.5000    0.0000    0.0000 N   0  0  0  0  0  0  0  0  0  9  0  0
    0.7500   -1.2990    0.0000 C   0  0  0  0  0  0  0  0  0 24  0  0
    0.7500    1.2990    0.0000 C   0  0  0  0  0  0  0  0  0 25  0  0
   -0.7500   -1.2990    0.0000 C   0  0  0  0  0  0  0  0  0 22  0  0
    2.1595   -1.8121    0.0000 H   0  0  0  0  0  0  0  0  0  0  0  0
    0.4895   -2.7762    0.0000 H   0  0  0  0  0  0  0  0  0  0  0  0
   -0.7500    1.2990    0.0000 C   0  0  0  0  0  0  0  0  0 23  0  0
    0.4895    2.7762    0.0000 H   0  0  0  0  0  0  0  0  0  0  0  0
    2.1595    1.8121    0.0000 H   0  0  0  0  0  0  0  0  0  0  0  0
   -1.5000    0.0000    0.0000 N   0  0  0  0  0  0  0  0  0  8  0  0
   -0.4895   -2.7762    0.0000 H   0  0  0  0  0  0  0  0  0  0  0  0
   -2.0865   -1.9801    0.0000 H   0  0  0  0  0  0  0  0  0  0  0  0
   -2.0865    1.9801    0.0000 H   0  0  0  0  0  0  0  0  0  0  0  0
   -0.4895    2.7762    0.0000 H   0  0  0  0  0  0  0  0  0  0  0  0
   -3.0000    0.0000    0.0000 C   0  0  0  0  0  0  0  0  0 21  0  0
   -4.5000    0.0000    0.0000 C   0  0  0  0  0  0  0  0  0 11  0  0
   -3.1828   -1.4888    0.0000 H   0  0  0  0  0  0  0  0  0  0  0  0
   -3.1828    1.4888    0.0000 H   0  0  0  0  0  0  0  0  0  0  0  0
   -6.0000    0.0000    0.0000 H   0  0  0  0  0  0  0  0  0  0  0  0
   -4.5000   -1.5000    0.0000 H   0  0  0  0  0  0  0  0  0  0  0  0
   -4.5000    1.5000    0.0000 H   0  0  0  0  0  0  0  0  0  0  0  0
    3.0000    0.0000    0.0000 H   0  0  0  0  0  0  0  0  0  0  0  0
  1  2  1  0
  3  1  1  0
  2  4  1  0
  2  5  1  0
  2  6  1  0
  7  3  1  0
  3  8  1  0
  3  9  1  0
  4 10  1  0
  4 11  1  0
  4 12  1  0
 10  7  1  0
  7 13  1  0
  7 14  1  0
 10 15  1  0
 15 16  1  0
 15 17  1  0
 15 18  1  0
 16 19  1  0
 16 20  1  0
 16 21  1  0
  1 22  1  0
M  END
>  <SMILES>  (3) 
CCN1CCNCC1

>  <Molecular Weight>  (3) 
114.2

>  <Substrate_ID>  (3) 
MOL0056

>  <Substrate>  (3) 


>  <Substrate_SMILES>  (3) 
CCN1CCN(Cc2ccc(Nc3ncc(F)c(-c4cc(F)c5nc(C)n(C(C)C)c5c4)n3)nc2)CC1

>  <Reaction>  (3) 
N-dealkylation_(tertiaryN-CH2-alkyl)

>  <Score>  (3) 
0.3608

>  <Reaction_Score>  (3) 
0.363

>  <Bond_Score>  (3) 
0.3586

>  <Rank>  (3) 
3

>  <Subtype>  (3) 
REACTION

>  <Subtype_Scores>  (3) 
[REACTION] SOM_score: 0.3586, Reaction_score: 0.3630, Score: 0.3608


$$$$

     RDKit          2D

 50 53  0  0  0  0  0  0  0  0999 V2000
    8.6419    2.5275    0.0000 O   0  0  0  0  0  0  0  0  0 38  0  0
    7.5272    3.5312    0.0000 C   0  0  0  0  0  0  0  0  0 26  0  0
    6.4125    4.5348    0.0000 C   0  0  0  0  0  0  0  0  0 27  0  0
    8.5309    4.6459    0.0000 H   0  0  0  0  0  0  0  0  0  0  0  0
    6.5235    2.4164    0.0000 H   0  0  0  0  0  0  0  0  0  0  0  0
    4.9859    4.0713    0.0000 C   0  0  0  0  0  0  0  0  0 16  0  0
    6.7244    6.0021    0.0000 C   0  0  0  0  0  0  0  0  0 15  0  0
    3.8712    5.0750    0.0000 N   0  0  0  0  0  0  0  0  0  3  0  0
    4.6741    2.6041    0.0000 H   0  0  0  0  0  0  0  0  0  0  0  0
    5.6097    7.0058    0.0000 C   0  0  0  0  0  0  0  0  0 17  0  0
    8.1510    6.4656    0.0000 H   0  0  0  0  0  0  0  0  0  0  0  0
    4.1831    6.5422    0.0000 C   0  0  0  0  0  0  0  0  0 29  0  0
    5.9215    8.4730    0.0000 H   0  0  0  0  0  0  0  0  0  0  0  0
    3.0684    7.5459    0.0000 N   0  0  0  0  0  0  0  0  0  7  0  0
    1.6418    7.0824    0.0000 C   0  0  0  0  0  0  0  0  0 30  0  0
    3.3802    9.0132    0.0000 H   0  0  0  0  0  0  0  0  0  0  0  0
    0.5271    8.0861    0.0000 N   0  0  0  0  0  0  0  0  0  4  0  0
    1.3299    5.6152    0.0000 N   0  0  0  0  0  0  0  0  0  5  0  0
   -0.8995    7.6226    0.0000 C   0  0  0  0  0  0  0  0  0 18  0  0
   -0.0967    5.1517    0.0000 C   0  0  0  0  0  0  0  0  0 32  0  0
   -1.2114    6.1554    0.0000 C   0  0  0  0  0  0  0  0  0 31  0  0
   -2.0143    8.6263    0.0000 H   0  0  0  0  0  0  0  0  0  0  0  0
   -0.4086    3.6844    0.0000 C   0  0  0  0  0  0  0  0  0 28  0  0
   -2.6380    5.6918    0.0000 F   0  0  0  0  0  0  0  0  0  1  0  0
   -1.8351    3.2209    0.0000 C   0  0  0  0  0  0  0  0  0 19  0  0
    0.7062    2.6807    0.0000 C   0  0  0  0  0  0  0  0  0 20  0  0
   -2.1470    1.7537    0.0000 C   0  0  0  0  0  0  0  0  0 33  0  0
   -2.9499    4.2246    0.0000 H   0  0  0  0  0  0  0  0  0  0  0  0
    0.3943    1.2135    0.0000 C   0  0  0  0  0  0  0  0  0 36  0  0
    2.0656    3.3147    0.0000 H   0  0  0  0  0  0  0  0  0  0  0  0
   -3.5736    1.2902    0.0000 F   0  0  0  0  0  0  0  0  0  2  0  0
   -1.0323    0.7500    0.0000 C   0  0  0  0  0  0  0  0  0 35  0  0
    1.2760    0.0000    0.0000 N   0  0  0  0  0  0  0  0  0 10  0  0
   -1.0323   -0.7500    0.0000 N   0  0  0  0  0  0  0  0  0  6  0  0
    0.3943   -1.2135    0.0000 C   0  0  0  0  0  0  0  0  0 34  0  0
    2.7760    0.0000    0.0000 C   0  0  0  0  0  0  0  0  0 37  0  0
    0.8578   -2.6401    0.0000 C   0  0  0  0  0  0  0  0  0 12  0  0
    2.7760    1.5000    0.0000 C   0  0  0  0  0  0  0  0  0 13  0  0
    2.7760   -1.5000    0.0000 C   0  0  0  0  0  0  0  0  0 14  0  0
    4.2760    0.0000    0.0000 H   0  0  0  0  0  0  0  0  0  0  0  0
    1.3213   -4.0667    0.0000 H   0  0  0  0  0  0  0  0  0  0  0  0
   -0.5688   -3.1036    0.0000 H   0  0  0  0  0  0  0  0  0  0  0  0
    2.2844   -2.1766    0.0000 H   0  0  0  0  0  0  0  0  0  0  0  0
    2.9588    2.9888    0.0000 H   0  0  0  0  0  0  0  0  0  0  0  0
    1.2760    1.5000    0.0000 H   0  0  0  0  0  0  0  0  0  0  0  0
    4.2760    1.5000    0.0000 H   0  0  0  0  0  0  0  0  0  0  0  0
    2.7760   -3.0000    0.0000 H   0  0  0  0  0  0  0  0  0  0  0  0
    4.2760   -1.5000    0.0000 H   0  0  0  0  0  0  0  0  0  0  0  0
    1.2760   -1.5000    0.0000 H   0  0  0  0  0  0  0  0  0  0  0  0
    8.3301    1.0602    0.0000 H   0  0  0  0  0  0  0  0  0  0  0  0
  1  2  1  0
  3  2  1  0
  2  4  1  0
  2  5  1  0
  6  3  2  0
  3  7  1  0
  8  6  1  0
  6  9  1  0
  7 10  2  0
  7 11  1  0
 12  8  2  0
 10 12  1  0
 10 13  1  0
 14 12  1  0
 15 14  1  0
 14 16  1  0
 17 15  2  0
 15 18  1  0
 19 17  1  0
 18 20  2  0
 21 19  2  0
 19 22  1  0
 20 23  1  0
 20 21  1  0
 24 21  1  0
 23 25  2  0
 26 23  1  0
 25 27  1  0
 25 28  1  0
 29 26  2  0
 26 30  1  0
 27 31  1  0
 27 32  2  0
 33 29  1  0
 29 32  1  0
 32 34  1  0
 35 33  1  0
 33 36  1  0
 34 35  2  0
 35 37  1  0
 36 38  1  0
 36 39  1  0
 36 40  1  0
 37 41  1  0
 37 42  1  0
 37 43  1  0
 38 44  1  0
 38 45  1  0
 38 46  1  0
 39 47  1  0
 39 48  1  0
 39 49  1  0
  1 50  1  0
M  END
>  <SMILES>  (4) 
Cc1nc2c(F)cc(-c3nc(Nc4ccc(CO)cn4)ncc3F)cc2n1C(C)C

>  <Molecular Weight>  (4) 
410.4

>  <Substrate_ID>  (4) 
MOL0056

>  <Substrate>  (4) 


>  <Substrate_SMILES>  (4) 
CCN1CCN(Cc2ccc(Nc3ncc(F)c(-c4cc(F)c5nc(C)n(C(C)C)c5c4)n3)nc2)CC1

>  <Reaction>  (4) 
N-dealkylation_(tertiaryN-CH2-alkyl)

>  <Score>  (4) 
0.3608

>  <Reaction_Score>  (4) 
0.363

>  <Bond_Score>  (4) 
0.3586

>  <Rank>  (4) 
3

>  <Subtype>  (4) 
REACTION

>  <Subtype_Scores>  (4) 
[REACTION] SOM_score: 0.3586, Reaction_score: 0.3630, Score: 0.3608


$$$$

     RDKit          2D

 48 51  0  0  0  0  0  0  0  0999 V2000
    7.5272    3.5312    0.0000 C   0  0  0  0  0  0  0  0  0 26  0  0
    8.9538    3.9947    0.0000 O   0  0  0  0  0  0  0  0  0 38  0  0
    6.4125    4.5348    0.0000 C   0  0  0  0  0  0  0  0  0 27  0  0
    7.2154    2.0639    0.0000 H   0  0  0  0  0  0  0  0  0  0  0  0
    4.9859    4.0713    0.0000 C   0  0  0  0  0  0  0  0  0 16  0  0
    6.7244    6.0021    0.0000 C   0  0  0  0  0  0  0  0  0 15  0  0
    3.8712    5.0750    0.0000 N   0  0  0  0  0  0  0  0  0  3  0  0
    4.6741    2.6041    0.0000 H   0  0  0  0  0  0  0  0  0  0  0  0
    5.6097    7.0058    0.0000 C   0  0  0  0  0  0  0  0  0 17  0  0
    8.1510    6.4656    0.0000 H   0  0  0  0  0  0  0  0  0  0  0  0
    4.1831    6.5422    0.0000 C   0  0  0  0  0  0  0  0  0 29  0  0
    5.9215    8.4730    0.0000 H   0  0  0  0  0  0  0  0  0  0  0  0
    3.0684    7.5459    0.0000 N   0  0  0  0  0  0  0  0  0  7  0  0
    1.6418    7.0824    0.0000 C   0  0  0  0  0  0  0  0  0 30  0  0
    3.3802    9.0132    0.0000 H   0  0  0  0  0  0  0  0  0  0  0  0
    0.5271    8.0861    0.0000 N   0  0  0  0  0  0  0  0  0  4  0  0
    1.3299    5.6152    0.0000 N   0  0  0  0  0  0  0  0  0  5  0  0
   -0.8995    7.6226    0.0000 C   0  0  0  0  0  0  0  0  0 18  0  0
   -0.0967    5.1517    0.0000 C   0  0  0  0  0  0  0  0  0 32  0  0
   -1.2114    6.1554    0.0000 C   0  0  0  0  0  0  0  0  0 31  0  0
   -2.0143    8.6263    0.0000 H   0  0  0  0  0  0  0  0  0  0  0  0
   -0.4086    3.6844    0.0000 C   0  0  0  0  0  0  0  0  0 28  0  0
   -2.6380    5.6918    0.0000 F   0  0  0  0  0  0  0  0  0  1  0  0
   -1.8351    3.2209    0.0000 C   0  0  0  0  0  0  0  0  0 19  0  0
    0.7062    2.6807    0.0000 C   0  0  0  0  0  0  0  0  0 20  0  0
   -2.1470    1.7537    0.0000 C   0  0  0  0  0  0  0  0  0 33  0  0
   -2.9499    4.2246    0.0000 H   0  0  0  0  0  0  0  0  0  0  0  0
    0.3943    1.2135    0.0000 C   0  0  0  0  0  0  0  0  0 36  0  0
    2.0656    3.3147    0.0000 H   0  0  0  0  0  0  0  0  0  0  0  0
   -3.5736    1.2902    0.0000 F   0  0  0  0  0  0  0  0  0  2  0  0
   -1.0323    0.7500    0.0000 C   0  0  0  0  0  0  0  0  0 35  0  0
    1.2760    0.0000    0.0000 N   0  0  0  0  0  0  0  0  0 10  0  0
   -1.0323   -0.7500    0.0000 N   0  0  0  0  0  0  0  0  0  6  0  0
    0.3943   -1.2135    0.0000 C   0  0  0  0  0  0  0  0  0 34  0  0
    2.7760    0.0000    0.0000 C   0  0  0  0  0  0  0  0  0 37  0  0
    0.8578   -2.6401    0.0000 C   0  0  0  0  0  0  0  0  0 12  0  0
    2.7760    1.5000    0.0000 C   0  0  0  0  0  0  0  0  0 13  0  0
    2.7760   -1.5000    0.0000 C   0  0  0  0  0  0  0  0  0 14  0  0
    4.2760    0.0000    0.0000 H   0  0  0  0  0  0  0  0  0  0  0  0
    1.3213   -4.0667    0.0000 H   0  0  0  0  0  0  0  0  0  0  0  0
   -0.5688   -3.1036    0.0000 H   0  0  0  0  0  0  0  0  0  0  0  0
    2.2844   -2.1766    0.0000 H   0  0  0  0  0  0  0  0  0  0  0  0
    2.9588    2.9888    0.0000 H   0  0  0  0  0  0  0  0  0  0  0  0
    1.2760    1.5000    0.0000 H   0  0  0  0  0  0  0  0  0  0  0  0
    4.2760    1.5000    0.0000 H   0  0  0  0  0  0  0  0  0  0  0  0
    2.7760   -3.0000    0.0000 H   0  0  0  0  0  0  0  0  0  0  0  0
    4.2760   -1.5000    0.0000 H   0  0  0  0  0  0  0  0  0  0  0  0
    1.2760   -1.5000    0.0000 H   0  0  0  0  0  0  0  0  0  0  0  0
  1  2  2  0
  3  1  1  0
  1  4  1  0
  5  3  2  0
  3  6  1  0
  7  5  1  0
  5  8  1  0
  6  9  2  0
  6 10  1  0
 11  7  2  0
  9 11  1  0
  9 12  1  0
 13 11  1  0
 14 13  1  0
 13 15  1  0
 16 14  2  0
 14 17  1  0
 18 16  1  0
 17 19  2  0
 20 18  2  0
 18 21  1  0
 19 22  1  0
 19 20  1  0
 23 20  1  0
 22 24  2  0
 25 22  1  0
 24 26  1  0
 24 27  1  0
 28 25  2  0
 25 29  1  0
 26 30  1  0
 26 31  2  0
 32 28  1  0
 28 31  1  0
 31 33  1  0
 34 32  1  0
 32 35  1  0
 33 34  2  0
 34 36  1  0
 35 37  1  0
 35 38  1  0
 35 39  1  0
 36 40  1  0
 36 41  1  0
 36 42  1  0
 37 43  1  0
 37 44  1  0
 37 45  1  0
 38 46  1  0
 38 47  1  0
 38 48  1  0
M  END
>  <SMILES>  (5) 
Cc1nc2c(F)cc(-c3nc(Nc4ccc(C=O)cn4)ncc3F)cc2n1C(C)C

>  <Molecular Weight>  (5) 
408.4

>  <Substrate_ID>  (5) 
MOL0056

>  <Substrate>  (5) 


>  <Substrate_SMILES>  (5) 
CCN1CCN(Cc2ccc(Nc3ncc(F)c(-c4cc(F)c5nc(C)n(C(C)C)c5c4)n3)nc2)CC1

>  <Reaction>  (5) 
N-dealkylation_(hetero_ring)

>  <Score>  (5) 
0.3608

>  <Reaction_Score>  (5) 
0.363

>  <Bond_Score>  (5) 
0.3586

>  <Rank>  (5) 
3

>  <Subtype>  (5) 
REACTION

>  <Subtype_Scores>  (5) 
[REACTION] SOM_score: 0.3586, Reaction_score: 0.3630, Score: 0.3608


$$$$

     RDKit          2D

 70 74  0  0  0  0  0  0  0  0999 V2000
    2.7760   -1.5000    0.0000 C   0  0  0  0  0  0  0  0  0 13  0  0
    2.7760    0.0000    0.0000 C   0  0  0  0  0  0  0  0  0 37  0  0
    4.2760    0.0000    0.0000 O   0  0  0  0  0  0  0  0  0 38  0  0
    2.7760    1.5000    0.0000 C   0  0  0  0  0  0  0  0  0 14  0  0
    1.2760    0.0000    0.0000 N   0  0  0  0  0  0  0  0  0 10  0  0
    0.3943    1.2135    0.0000 C   0  0  0  0  0  0  0  0  0 34  0  0
    0.3943   -1.2135    0.0000 C   0  0  0  0  0  0  0  0  0 36  0  0
   -1.0323    0.7500    0.0000 N   0  0  0  0  0  0  0  0  0  6  0  0
    0.8578    2.6401    0.0000 C   0  0  0  0  0  0  0  0  0 12  0  0
    0.7062   -2.6807    0.0000 C   0  0  0  0  0  0  0  0  0 20  0  0
   -1.0323   -0.7500    0.0000 C   0  0  0  0  0  0  0  0  0 35  0  0
    1.3213    4.0667    0.0000 H   0  0  0  0  0  0  0  0  0  0  0  0
    2.2844    2.1766    0.0000 H   0  0  0  0  0  0  0  0  0  0  0  0
   -0.5688    3.1036    0.0000 H   0  0  0  0  0  0  0  0  0  0  0  0
   -0.4086   -3.6844    0.0000 C   0  0  0  0  0  0  0  0  0 28  0  0
    2.0656   -3.3147    0.0000 H   0  0  0  0  0  0  0  0  0  0  0  0
   -2.1470   -1.7537    0.0000 C   0  0  0  0  0  0  0  0  0 33  0  0
   -0.0967   -5.1517    0.0000 C   0  0  0  0  0  0  0  0  0 32  0  0
   -1.8351   -3.2209    0.0000 C   0  0  0  0  0  0  0  0  0 19  0  0
   -3.5736   -1.2902    0.0000 F   0  0  0  0  0  0  0  0  0  2  0  0
   -1.2114   -6.1554    0.0000 N   0  0  0  0  0  0  0  0  0  5  0  0
    1.3299   -5.6152    0.0000 C   0  0  0  0  0  0  0  0  0 31  0  0
   -2.9499   -4.2246    0.0000 H   0  0  0  0  0  0  0  0  0  0  0  0
   -0.8995   -7.6226    0.0000 C   0  0  0  0  0  0  0  0  0 30  0  0
    2.4446   -4.6115    0.0000 F   0  0  0  0  0  0  0  0  0  1  0  0
    1.6418   -7.0824    0.0000 C   0  0  0  0  0  0  0  0  0 18  0  0
    0.5271   -8.0861    0.0000 N   0  0  0  0  0  0  0  0  0  4  0  0
   -2.0143   -8.6263    0.0000 N   0  0  0  0  0  0  0  0  0  7  0  0
    3.0684   -7.5459    0.0000 H   0  0  0  0  0  0  0  0  0  0  0  0
   -3.4408   -8.1628    0.0000 C   0  0  0  0  0  0  0  0  0 29  0  0
   -1.7024  -10.0935    0.0000 H   0  0  0  0  0  0  0  0  0  0  0  0
   -3.7527   -6.6955    0.0000 N   0  0  0  0  0  0  0  0  0  3  0  0
   -4.5556   -9.1664    0.0000 C   0  0  0  0  0  0  0  0  0 17  0  0
   -5.1793   -6.2320    0.0000 C   0  0  0  0  0  0  0  0  0 16  0  0
   -5.9821   -8.7029    0.0000 C   0  0  0  0  0  0  0  0  0 15  0  0
   -4.2437  -10.6337    0.0000 H   0  0  0  0  0  0  0  0  0  0  0  0
   -6.2940   -7.2357    0.0000 C   0  0  0  0  0  0  0  0  0 27  0  0
   -5.4912   -4.7648    0.0000 H   0  0  0  0  0  0  0  0  0  0  0  0
   -7.0969   -9.7066    0.0000 H   0  0  0  0  0  0  0  0  0  0  0  0
   -7.7206   -6.7722    0.0000 C   0  0  0  0  0  0  0  0  0 26  0  0
   -9.1472   -6.3086    0.0000 N   0  0  0  0  0  0  0  0  0  9  0  0
   -7.0866   -5.4127    0.0000 H   0  0  0  0  0  0  0  0  0  0  0  0
   -8.0068   -8.2446    0.0000 H   0  0  0  0  0  0  0  0  0  0  0  0
   -9.4590   -4.8414    0.0000 C   0  0  0  0  0  0  0  0  0 24  0  0
  -10.2619   -7.3123    0.0000 C   0  0  0  0  0  0  0  0  0 25  0  0
  -10.8856   -4.3779    0.0000 C   0  0  0  0  0  0  0  0  0 22  0  0
   -9.2503   -3.3560    0.0000 H   0  0  0  0  0  0  0  0  0  0  0  0
   -7.9775   -4.6067    0.0000 H   0  0  0  0  0  0  0  0  0  0  0  0
  -11.6885   -6.8488    0.0000 C   0  0  0  0  0  0  0  0  0 23  0  0
   -9.2013   -8.3730    0.0000 H   0  0  0  0  0  0  0  0  0  0  0  0
  -10.9661   -8.6368    0.0000 H   0  0  0  0  0  0  0  0  0  0  0  0
  -12.0003   -5.3816    0.0000 N   0  0  0  0  0  0  0  0  0  8  0  0
  -11.9463   -3.3172    0.0000 H   0  0  0  0  0  0  0  0  0  0  0  0
  -10.1814   -3.0535    0.0000 H   0  0  0  0  0  0  0  0  0  0  0  0
  -11.8972   -8.3342    0.0000 H   0  0  0  0  0  0  0  0  0  0  0  0
  -13.1700   -7.0835    0.0000 H   0  0  0  0  0  0  0  0  0  0  0  0
  -13.4269   -4.9181    0.0000 C   0  0  0  0  0  0  0  0  0 21  0  0
  -14.8535   -4.4545    0.0000 C   0  0  0  0  0  0  0  0  0 11  0  0
  -14.0609   -6.2775    0.0000 H   0  0  0  0  0  0  0  0  0  0  0  0
  -13.1408   -3.4456    0.0000 H   0  0  0  0  0  0  0  0  0  0  0  0
  -16.2801   -3.9910    0.0000 H   0  0  0  0  0  0  0  0  0  0  0  0
  -15.3170   -5.8811    0.0000 H   0  0  0  0  0  0  0  0  0  0  0  0
  -14.3900   -3.0280    0.0000 H   0  0  0  0  0  0  0  0  0  0  0  0
    2.9588   -2.9888    0.0000 H   0  0  0  0  0  0  0  0  0  0  0  0
    4.2648   -1.6828    0.0000 H   0  0  0  0  0  0  0  0  0  0  0  0
    1.2760   -1.5000    0.0000 H   0  0  0  0  0  0  0  0  0  0  0  0
    5.1787   -1.1979    0.0000 H   0  0  0  0  0  0  0  0  0  0  0  0
    2.7760    3.0000    0.0000 H   0  0  0  0  0  0  0  0  0  0  0  0
    4.2760    1.5000    0.0000 H   0  0  0  0  0  0  0  0  0  0  0  0
    1.2760    1.5000    0.0000 H   0  0  0  0  0  0  0  0  0  0  0  0
  1  2  1  0
  2  3  1  0
  2  4  1  0
  5  2  1  0
  6  5  1  0
  5  7  1  0
  8  6  2  0
  6  9  1  0
  7 10  2  0
  7 11  1  0
 11  8  1  0
  9 12  1  0
  9 13  1  0
  9 14  1  0
 10 15  1  0
 10 16  1  0
 17 11  2  0
 18 15  1  0
 15 19  2  0
 19 17  1  0
 17 20  1  0
 21 18  2  0
 18 22  1  0
 19 23  1  0
 24 21  1  0
 25 22  1  0
 22 26  2  0
 27 24  2  0
 24 28  1  0
 26 27  1  0
 26 29  1  0
 28 30  1  0
 28 31  1  0
 30 32  2  0
 33 30  1  0
 32 34  1  0
 35 33  2  0
 33 36  1  0
 34 37  2  0
 34 38  1  0
 37 35  1  0
 35 39  1  0
 37 40  1  0
 40 41  1  0
 40 42  1  0
 40 43  1  0
 41 44  1  0
 45 41  1  0
 44 46  1  0
 44 47  1  0
 44 48  1  0
 49 45  1  0
 45 50  1  0
 45 51  1  0
 46 52  1  0
 46 53  1  0
 46 54  1  0
 52 49  1  0
 49 55  1  0
 49 56  1  0
 52 57  1  0
 57 58  1  0
 57 59  1  0
 57 60  1  0
 58 61  1  0
 58 62  1  0
 58 63  1  0
  1 64  1  0
  1 65  1  0
  1 66  1  0
  3 67  1  0
  4 68  1  0
  4 69  1  0
  4 70  1  0
M  END
>  <SMILES>  (6) 
CCN1CCN(Cc2ccc(Nc3ncc(F)c(-c4cc(F)c5nc(C)n(C(C)(C)O)c5c4)n3)nc2)CC1

>  <Molecular Weight>  (6) 
522.6

>  <Substrate_ID>  (6) 
MOL0056

>  <Substrate>  (6) 


>  <Substrate_SMILES>  (6) 
CCN1CCN(Cc2ccc(Nc3ncc(F)c(-c4cc(F)c5nc(C)n(C(C)C)c5c4)n3)nc2)CC1

>  <Reaction>  (6) 
aliphatic_hydroxylation_(tert_carbon_linked_to_two_CH3_groups),aliphatic hydroxylation

>  <Score>  (6) 
0.2059

>  <Reaction_Score>  (6) 
0.1182

>  <Bond_Score>  (6) 
0.3584

>  <Rank>  (6) 
4

>  <Subtype>  (6) 
REACTION

>  <Subtype_Scores>  (6) 
[REACTION] SOM_score: 0.3584, Reaction_score: 0.1182, Score: 0.2059


$$$$

     RDKit          2D

 60 64  0  0  0  0  0  0  0  0999 V2000
    1.2760    0.0000    0.0000 N   0  0  0  0  0  0  0  0  0 10  0  0
    2.7760    0.0000    0.0000 H   0  0  0  0  0  0  0  0  0  0  0  0
    0.3943    1.2135    0.0000 C   0  0  0  0  0  0  0  0  0 34  0  0
    0.3943   -1.2135    0.0000 C   0  0  0  0  0  0  0  0  0 36  0  0
   -1.0323    0.7500    0.0000 N   0  0  0  0  0  0  0  0  0  6  0  0
    0.8578    2.6401    0.0000 C   0  0  0  0  0  0  0  0  0 12  0  0
    0.7062   -2.6807    0.0000 C   0  0  0  0  0  0  0  0  0 20  0  0
   -1.0323   -0.7500    0.0000 C   0  0  0  0  0  0  0  0  0 35  0  0
    1.3213    4.0667    0.0000 H   0  0  0  0  0  0  0  0  0  0  0  0
    2.2844    2.1766    0.0000 H   0  0  0  0  0  0  0  0  0  0  0  0
   -0.5688    3.1036    0.0000 H   0  0  0  0  0  0  0  0  0  0  0  0
   -0.4086   -3.6844    0.0000 C   0  0  0  0  0  0  0  0  0 28  0  0
    2.1328   -3.1443    0.0000 H   0  0  0  0  0  0  0  0  0  0  0  0
   -2.1470   -1.7537    0.0000 C   0  0  0  0  0  0  0  0  0 33  0  0
   -0.0967   -5.1517    0.0000 C   0  0  0  0  0  0  0  0  0 32  0  0
   -1.8351   -3.2209    0.0000 C   0  0  0  0  0  0  0  0  0 19  0  0
   -3.5736   -1.2902    0.0000 F   0  0  0  0  0  0  0  0  0  2  0  0
   -1.2114   -6.1554    0.0000 N   0  0  0  0  0  0  0  0  0  5  0  0
    1.3299   -5.6152    0.0000 C   0  0  0  0  0  0  0  0  0 31  0  0
   -2.9499   -4.2246    0.0000 H   0  0  0  0  0  0  0  0  0  0  0  0
   -0.8995   -7.6226    0.0000 C   0  0  0  0  0  0  0  0  0 30  0  0
    2.4446   -4.6115    0.0000 F   0  0  0  0  0  0  0  0  0  1  0  0
    1.6418   -7.0824    0.0000 C   0  0  0  0  0  0  0  0  0 18  0  0
    0.5271   -8.0861    0.0000 N   0  0  0  0  0  0  0  0  0  4  0  0
   -2.0143   -8.6263    0.0000 N   0  0  0  0  0  0  0  0  0  7  0  0
    3.0684   -7.5459    0.0000 H   0  0  0  0  0  0  0  0  0  0  0  0
   -3.4408   -8.1628    0.0000 C   0  0  0  0  0  0  0  0  0 29  0  0
   -1.7024  -10.0935    0.0000 H   0  0  0  0  0  0  0  0  0  0  0  0
   -3.7527   -6.6955    0.0000 N   0  0  0  0  0  0  0  0  0  3  0  0
   -4.5556   -9.1664    0.0000 C   0  0  0  0  0  0  0  0  0 17  0  0
   -5.1793   -6.2320    0.0000 C   0  0  0  0  0  0  0  0  0 16  0  0
   -5.9821   -8.7029    0.0000 C   0  0  0  0  0  0  0  0  0 15  0  0
   -4.2437  -10.6337    0.0000 H   0  0  0  0  0  0  0  0  0  0  0  0
   -6.2940   -7.2357    0.0000 C   0  0  0  0  0  0  0  0  0 27  0  0
   -5.4912   -4.7648    0.0000 H   0  0  0  0  0  0  0  0  0  0  0  0
   -7.0969   -9.7066    0.0000 H   0  0  0  0  0  0  0  0  0  0  0  0
   -7.7206   -6.7722    0.0000 C   0  0  0  0  0  0  0  0  0 26  0  0
   -9.1472   -6.3086    0.0000 N   0  0  0  0  0  0  0  0  0  9  0  0
   -7.0866   -5.4127    0.0000 H   0  0  0  0  0  0  0  0  0  0  0  0
   -8.0068   -8.2446    0.0000 H   0  0  0  0  0  0  0  0  0  0  0  0
   -9.4590   -4.8414    0.0000 C   0  0  0  0  0  0  0  0  0 24  0  0
  -10.2619   -7.3123    0.0000 C   0  0  0  0  0  0  0  0  0 25  0  0
  -10.8856   -4.3779    0.0000 C   0  0  0  0  0  0  0  0  0 22  0  0
   -9.2503   -3.3560    0.0000 H   0  0  0  0  0  0  0  0  0  0  0  0
   -7.9775   -4.6067    0.0000 H   0  0  0  0  0  0  0  0  0  0  0  0
  -11.6885   -6.8488    0.0000 C   0  0  0  0  0  0  0  0  0 23  0  0
   -9.2013   -8.3730    0.0000 H   0  0  0  0  0  0  0  0  0  0  0  0
  -10.9661   -8.6368    0.0000 H   0  0  0  0  0  0  0  0  0  0  0  0
  -12.0003   -5.3816    0.0000 N   0  0  0  0  0  0  0  0  0  8  0  0
  -11.9463   -3.3172    0.0000 H   0  0  0  0  0  0  0  0  0  0  0  0
  -10.1814   -3.0535    0.0000 H   0  0  0  0  0  0  0  0  0  0  0  0
  -11.8972   -8.3342    0.0000 H   0  0  0  0  0  0  0  0  0  0  0  0
  -13.1700   -7.0835    0.0000 H   0  0  0  0  0  0  0  0  0  0  0  0
  -13.4269   -4.9181    0.0000 C   0  0  0  0  0  0  0  0  0 21  0  0
  -14.8535   -4.4545    0.0000 C   0  0  0  0  0  0  0  0  0 11  0  0
  -14.0609   -6.2775    0.0000 H   0  0  0  0  0  0  0  0  0  0  0  0
  -13.1408   -3.4456    0.0000 H   0  0  0  0  0  0  0  0  0  0  0  0
  -16.2801   -3.9910    0.0000 H   0  0  0  0  0  0  0  0  0  0  0  0
  -15.3170   -5.8811    0.0000 H   0  0  0  0  0  0  0  0  0  0  0  0
  -14.3900   -3.0280    0.0000 H   0  0  0  0  0  0  0  0  0  0  0  0
  1  2  1  0
  3  1  1  0
  1  4  1  0
  5  3  2  0
  3  6  1  0
  4  7  2  0
  4  8  1  0
  8  5  1  0
  6  9  1  0
  6 10  1  0
  6 11  1  0
  7 12  1  0
  7 13  1  0
 14  8  2  0
 15 12  1  0
 12 16  2  0
 16 14  1  0
 14 17  1  0
 18 15  2  0
 15 19  1  0
 16 20  1  0
 21 18  1  0
 22 19  1  0
 19 23  2  0
 24 21  2  0
 21 25  1  0
 23 24  1  0
 23 26  1  0
 25 27  1  0
 25 28  1  0
 27 29  2  0
 30 27  1  0
 29 31  1  0
 32 30  2  0
 30 33  1  0
 31 34  2  0
 31 35  1  0
 34 32  1  0
 32 36  1  0
 34 37  1  0
 37 38  1  0
 37 39  1  0
 37 40  1  0
 38 41  1  0
 42 38  1  0
 41 43  1  0
 41 44  1  0
 41 45  1  0
 46 42  1  0
 42 47  1  0
 42 48  1  0
 43 49  1  0
 43 50  1  0
 43 51  1  0
 49 46  1  0
 46 52  1  0
 46 53  1  0
 49 54  1  0
 54 55  1  0
 54 56  1  0
 54 57  1  0
 55 58  1  0
 55 59  1  0
 55 60  1  0
M  END
>  <SMILES>  (7) 
CCN1CCN(Cc2ccc(Nc3ncc(F)c(-c4cc(F)c5nc(C)[nH]c5c4)n3)nc2)CC1

>  <Molecular Weight>  (7) 
464.5

>  <Substrate_ID>  (7) 
MOL0056

>  <Substrate>  (7) 


>  <Substrate_SMILES>  (7) 
CCN1CCN(Cc2ccc(Nc3ncc(F)c(-c4cc(F)c5nc(C)n(C(C)C)c5c4)n3)nc2)CC1

>  <Reaction>  (7) 
N-dealkylation_(hetero_ring)

>  <Score>  (7) 
0.1756

>  <Reaction_Score>  (7) 
0.1708

>  <Bond_Score>  (7) 
0.1805

>  <Rank>  (7) 
5

>  <Subtype>  (7) 
REACTION

>  <Subtype_Scores>  (7) 
[REACTION] SOM_score: 0.1805, Reaction_score: 0.1708, Score: 0.1756


$$$$

     RDKit          2D

 70 74  0  0  0  0  0  0  0  0999 V2000
    2.7760    1.5000    0.0000 C   0  0  0  0  0  0  0  0  0 13  0  0
    2.7760    3.0000    0.0000 O   0  0  0  0  0  0  0  0  0 38  0  0
    4.0750    3.7500    0.0000 H   0  0  0  0  0  0  0  0  0  0  0  0
    2.7760    0.0000    0.0000 C   0  0  0  0  0  0  0  0  0 37  0  0
    4.2760    1.5000    0.0000 H   0  0  0  0  0  0  0  0  0  0  0  0
    1.2760    1.5000    0.0000 H   0  0  0  0  0  0  0  0  0  0  0  0
    1.2760    0.0000    0.0000 N   0  0  0  0  0  0  0  0  0 10  0  0
    2.7760   -1.5000    0.0000 C   0  0  0  0  0  0  0  0  0 14  0  0
    4.2760    0.0000    0.0000 H   0  0  0  0  0  0  0  0  0  0  0  0
    0.3943    1.2135    0.0000 C   0  0  0  0  0  0  0  0  0 34  0  0
    0.3943   -1.2135    0.0000 C   0  0  0  0  0  0  0  0  0 36  0  0
    2.9588   -2.9888    0.0000 H   0  0  0  0  0  0  0  0  0  0  0  0
    1.2760   -1.5000    0.0000 H   0  0  0  0  0  0  0  0  0  0  0  0
    4.2760   -1.5000    0.0000 H   0  0  0  0  0  0  0  0  0  0  0  0
   -1.0323    0.7500    0.0000 N   0  0  0  0  0  0  0  0  0  6  0  0
    0.8578    2.6401    0.0000 C   0  0  0  0  0  0  0  0  0 12  0  0
    0.7062   -2.6807    0.0000 C   0  0  0  0  0  0  0  0  0 20  0  0
   -1.0323   -0.7500    0.0000 C   0  0  0  0  0  0  0  0  0 35  0  0
    1.3213    4.0667    0.0000 H   0  0  0  0  0  0  0  0  0  0  0  0
    2.2844    2.1766    0.0000 H   0  0  0  0  0  0  0  0  0  0  0  0
   -0.5688    3.1036    0.0000 H   0  0  0  0  0  0  0  0  0  0  0  0
   -0.4086   -3.6844    0.0000 C   0  0  0  0  0  0  0  0  0 28  0  0
    2.0656   -3.3147    0.0000 H   0  0  0  0  0  0  0  0  0  0  0  0
   -2.1470   -1.7537    0.0000 C   0  0  0  0  0  0  0  0  0 33  0  0
   -0.0967   -5.1517    0.0000 C   0  0  0  0  0  0  0  0  0 32  0  0
   -1.8351   -3.2209    0.0000 C   0  0  0  0  0  0  0  0  0 19  0  0
   -3.5736   -1.2902    0.0000 F   0  0  0  0  0  0  0  0  0  2  0  0
   -1.2114   -6.1554    0.0000 N   0  0  0  0  0  0  0  0  0  5  0  0
    1.3299   -5.6152    0.0000 C   0  0  0  0  0  0  0  0  0 31  0  0
   -2.9499   -4.2246    0.0000 H   0  0  0  0  0  0  0  0  0  0  0  0
   -0.8995   -7.6226    0.0000 C   0  0  0  0  0  0  0  0  0 30  0  0
    2.4446   -4.6115    0.0000 F   0  0  0  0  0  0  0  0  0  1  0  0
    1.6418   -7.0824    0.0000 C   0  0  0  0  0  0  0  0  0 18  0  0
    0.5271   -8.0861    0.0000 N   0  0  0  0  0  0  0  0  0  4  0  0
   -2.0143   -8.6263    0.0000 N   0  0  0  0  0  0  0  0  0  7  0  0
    3.0684   -7.5459    0.0000 H   0  0  0  0  0  0  0  0  0  0  0  0
   -3.4408   -8.1628    0.0000 C   0  0  0  0  0  0  0  0  0 29  0  0
   -1.7024  -10.0935    0.0000 H   0  0  0  0  0  0  0  0  0  0  0  0
   -3.7527   -6.6955    0.0000 N   0  0  0  0  0  0  0  0  0  3  0  0
   -4.5556   -9.1664    0.0000 C   0  0  0  0  0  0  0  0  0 17  0  0
   -5.1793   -6.2320    0.0000 C   0  0  0  0  0  0  0  0  0 16  0  0
   -5.9821   -8.7029    0.0000 C   0  0  0  0  0  0  0  0  0 15  0  0
   -4.2437  -10.6337    0.0000 H   0  0  0  0  0  0  0  0  0  0  0  0
   -6.2940   -7.2357    0.0000 C   0  0  0  0  0  0  0  0  0 27  0  0
   -5.4912   -4.7648    0.0000 H   0  0  0  0  0  0  0  0  0  0  0  0
   -7.0969   -9.7066    0.0000 H   0  0  0  0  0  0  0  0  0  0  0  0
   -7.7206   -6.7722    0.0000 C   0  0  0  0  0  0  0  0  0 26  0  0
   -9.1472   -6.3086    0.0000 N   0  0  0  0  0  0  0  0  0  9  0  0
   -7.0866   -5.4127    0.0000 H   0  0  0  0  0  0  0  0  0  0  0  0
   -8.0068   -8.2446    0.0000 H   0  0  0  0  0  0  0  0  0  0  0  0
   -9.4590   -4.8414    0.0000 C   0  0  0  0  0  0  0  0  0 24  0  0
  -10.2619   -7.3123    0.0000 C   0  0  0  0  0  0  0  0  0 25  0  0
  -10.8856   -4.3779    0.0000 C   0  0  0  0  0  0  0  0  0 22  0  0
   -9.2503   -3.3560    0.0000 H   0  0  0  0  0  0  0  0  0  0  0  0
   -7.9775   -4.6067    0.0000 H   0  0  0  0  0  0  0  0  0  0  0  0
  -11.6885   -6.8488    0.0000 C   0  0  0  0  0  0  0  0  0 23  0  0
   -9.2013   -8.3730    0.0000 H   0  0  0  0  0  0  0  0  0  0  0  0
  -10.9661   -8.6368    0.0000 H   0  0  0  0  0  0  0  0  0  0  0  0
  -12.0003   -5.3816    0.0000 N   0  0  0  0  0  0  0  0  0  8  0  0
  -11.9463   -3.3172    0.0000 H   0  0  0  0  0  0  0  0  0  0  0  0
  -10.1814   -3.0535    0.0000 H   0  0  0  0  0  0  0  0  0  0  0  0
  -11.8972   -8.3342    0.0000 H   0  0  0  0  0  0  0  0  0  0  0  0
  -13.1700   -7.0835    0.0000 H   0  0  0  0  0  0  0  0  0  0  0  0
  -13.4269   -4.9181    0.0000 C   0  0  0  0  0  0  0  0  0 21  0  0
  -14.8535   -4.4545    0.0000 C   0  0  0  0  0  0  0  0  0 11  0  0
  -14.0609   -6.2775    0.0000 H   0  0  0  0  0  0  0  0  0  0  0  0
  -13.1408   -3.4456    0.0000 H   0  0  0  0  0  0  0  0  0  0  0  0
  -16.2801   -3.9910    0.0000 H   0  0  0  0  0  0  0  0  0  0  0  0
  -15.3170   -5.8811    0.0000 H   0  0  0  0  0  0  0  0  0  0  0  0
  -14.3900   -3.0280    0.0000 H   0  0  0  0  0  0  0  0  0  0  0  0
  1  2  1  0
  2  3  1  0
  4  1  1  0
  1  5  1  0
  1  6  1  0
  7  4  1  0
  4  8  1  0
  4  9  1  0
 10  7  1  0
  7 11  1  0
  8 12  1  0
  8 13  1  0
  8 14  1  0
 15 10  2  0
 10 16  1  0
 11 17  2  0
 11 18  1  0
 18 15  1  0
 16 19  1  0
 16 20  1  0
 16 21  1  0
 17 22  1  0
 17 23  1  0
 24 18  2  0
 25 22  1  0
 22 26  2  0
 26 24  1  0
 24 27  1  0
 28 25  2  0
 25 29  1  0
 26 30  1  0
 31 28  1  0
 32 29  1  0
 29 33  2  0
 34 31  2  0
 31 35  1  0
 33 34  1  0
 33 36  1  0
 35 37  1  0
 35 38  1  0
 37 39  2  0
 40 37  1  0
 39 41  1  0
 42 40  2  0
 40 43  1  0
 41 44  2  0
 41 45  1  0
 44 42  1  0
 42 46  1  0
 44 47  1  0
 47 48  1  0
 47 49  1  0
 47 50  1  0
 48 51  1  0
 52 48  1  0
 51 53  1  0
 51 54  1  0
 51 55  1  0
 56 52  1  0
 52 57  1  0
 52 58  1  0
 53 59  1  0
 53 60  1  0
 53 61  1  0
 59 56  1  0
 56 62  1  0
 56 63  1  0
 59 64  1  0
 64 65  1  0
 64 66  1  0
 64 67  1  0
 65 68  1  0
 65 69  1  0
 65 70  1  0
M  END
>  <SMILES>  (8) 
CCN1CCN(Cc2ccc(Nc3ncc(F)c(-c4cc(F)c5nc(C)n(C(C)CO)c5c4)n3)nc2)CC1

>  <Molecular Weight>  (8) 
522.6

>  <Substrate_ID>  (8) 
MOL0056

>  <Substrate>  (8) 


>  <Substrate_SMILES>  (8) 
CCN1CCN(Cc2ccc(Nc3ncc(F)c(-c4cc(F)c5nc(C)n(C(C)C)c5c4)n3)nc2)CC1

>  <Reaction>  (8) 
aliphatic hydroxylation

>  <Score>  (8) 
0.1128

>  <Reaction_Score>  (8) 
0.095

>  <Bond_Score>  (8) 
0.134

>  <Rank>  (8) 
6

>  <Subtype>  (8) 
REACTION

>  <Subtype_Scores>  (8) 
[REACTION] SOM_score: 0.1340, Reaction_score: 0.0950, Score: 0.1128


$$$$

     RDKit          2D

 70 74  0  0  0  0  0  0  0  0999 V2000
   11.1832    1.9873    0.0000 C   0  0  0  0  0  0  0  0  0 22  0  0
   10.8714    0.5201    0.0000 N   0  0  0  0  0  4  0  0  0  8  0  0
   12.3705    0.4677    0.0000 C   0  0  0  0  0  0  0  0  0 21  0  0
    9.4448    0.0565    0.0000 C   0  0  0  0  0  0  0  0  0 23  0  0
   11.0801   -0.9653    0.0000 O   0  0  0  0  0  1  0  0  0 38  0  0
   10.0685    2.9910    0.0000 C   0  0  0  0  0  0  0  0  0 24  0  0
   11.9781    3.2594    0.0000 H   0  0  0  0  0  0  0  0  0  0  0  0
   11.9532    1.7810    0.0000 H   0  0  0  0  0  0  0  0  0  0  0  0
    8.6419    2.5275    0.0000 N   0  0  0  0  0  0  0  0  0  9  0  0
    9.5310    4.3914    0.0000 H   0  0  0  0  0  0  0  0  0  0  0  0
   11.2505    3.9145    0.0000 H   0  0  0  0  0  0  0  0  0  0  0  0
    7.5272    3.5312    0.0000 C   0  0  0  0  0  0  0  0  0 26  0  0
    8.3301    1.0602    0.0000 C   0  0  0  0  0  0  0  0  0 25  0  0
    6.4125    4.5348    0.0000 C   0  0  0  0  0  0  0  0  0 27  0  0
    8.3876    4.7599    0.0000 H   0  0  0  0  0  0  0  0  0  0  0  0
    6.3951    2.5471    0.0000 H   0  0  0  0  0  0  0  0  0  0  0  0
    7.5352   -0.2118    0.0000 H   0  0  0  0  0  0  0  0  0  0  0  0
    6.8812    1.4484    0.0000 H   0  0  0  0  0  0  0  0  0  0  0  0
    6.7244    6.0021    0.0000 C   0  0  0  0  0  0  0  0  0 16  0  0
    4.9859    4.0713    0.0000 C   0  0  0  0  0  0  0  0  0 15  0  0
    5.6097    7.0058    0.0000 N   0  0  0  0  0  0  0  0  0  3  0  0
    8.1510    6.4656    0.0000 H   0  0  0  0  0  0  0  0  0  0  0  0
    3.8712    5.0750    0.0000 C   0  0  0  0  0  0  0  0  0 17  0  0
    4.6741    2.6041    0.0000 H   0  0  0  0  0  0  0  0  0  0  0  0
    4.1831    6.5422    0.0000 C   0  0  0  0  0  0  0  0  0 29  0  0
    2.4446    4.6115    0.0000 H   0  0  0  0  0  0  0  0  0  0  0  0
    3.0684    7.5459    0.0000 N   0  0  0  0  0  0  0  0  0  7  0  0
    1.6418    7.0824    0.0000 C   0  0  0  0  0  0  0  0  0 30  0  0
    3.3802    9.0132    0.0000 H   0  0  0  0  0  0  0  0  0  0  0  0
    0.5271    8.0861    0.0000 N   0  0  0  0  0  0  0  0  0  4  0  0
    1.3299    5.6152    0.0000 N   0  0  0  0  0  0  0  0  0  5  0  0
   -0.8995    7.6226    0.0000 C   0  0  0  0  0  0  0  0  0 18  0  0
   -0.0967    5.1517    0.0000 C   0  0  0  0  0  0  0  0  0 32  0  0
   -1.2114    6.1554    0.0000 C   0  0  0  0  0  0  0  0  0 31  0  0
   -2.0143    8.6263    0.0000 H   0  0  0  0  0  0  0  0  0  0  0  0
   -0.4086    3.6844    0.0000 C   0  0  0  0  0  0  0  0  0 28  0  0
   -2.6380    5.6918    0.0000 F   0  0  0  0  0  0  0  0  0  1  0  0
   -1.8351    3.2209    0.0000 C   0  0  0  0  0  0  0  0  0 19  0  0
    0.7062    2.6807    0.0000 C   0  0  0  0  0  0  0  0  0 20  0  0
   -2.1470    1.7537    0.0000 C   0  0  0  0  0  0  0  0  0 33  0  0
   -2.9499    4.2246    0.0000 H   0  0  0  0  0  0  0  0  0  0  0  0
    0.3943    1.2135    0.0000 C   0  0  0  0  0  0  0  0  0 36  0  0
    2.0656    3.3147    0.0000 H   0  0  0  0  0  0  0  0  0  0  0  0
   -3.5736    1.2902    0.0000 F   0  0  0  0  0  0  0  0  0  2  0  0
   -1.0323    0.7500    0.0000 C   0  0  0  0  0  0  0  0  0 35  0  0
    1.2760    0.0000    0.0000 N   0  0  0  0  0  0  0  0  0 10  0  0
   -1.0323   -0.7500    0.0000 N   0  0  0  0  0  0  0  0  0  6  0  0
    0.3943   -1.2135    0.0000 C   0  0  0  0  0  0  0  0  0 34  0  0
    2.7760    0.0000    0.0000 C   0  0  0  0  0  0  0  0  0 37  0  0
    0.8578   -2.6401    0.0000 C   0  0  0  0  0  0  0  0  0 12  0  0
    2.7760    1.5000    0.0000 C   0  0  0  0  0  0  0  0  0 13  0  0
    2.7760   -1.5000    0.0000 C   0  0  0  0  0  0  0  0  0 14  0  0
    4.2760    0.0000    0.0000 H   0  0  0  0  0  0  0  0  0  0  0  0
    1.3213   -4.0667    0.0000 H   0  0  0  0  0  0  0  0  0  0  0  0
   -0.5688   -3.1036    0.0000 H   0  0  0  0  0  0  0  0  0  0  0  0
    2.2844   -2.1766    0.0000 H   0  0  0  0  0  0  0  0  0  0  0  0
    2.9588    2.9888    0.0000 H   0  0  0  0  0  0  0  0  0  0  0  0
    4.2760    1.5000    0.0000 H   0  0  0  0  0  0  0  0  0  0  0  0
    1.2760    1.5000    0.0000 H   0  0  0  0  0  0  0  0  0  0  0  0
    2.7760   -3.0000    0.0000 H   0  0  0  0  0  0  0  0  0  0  0  0
    4.2760   -1.5000    0.0000 H   0  0  0  0  0  0  0  0  0  0  0  0
    1.2760   -1.5000    0.0000 H   0  0  0  0  0  0  0  0  0  0  0  0
   13.8695    0.4154    0.0000 C   0  0  0  0  0  0  0  0  0 11  0  0
   12.4952    1.2551    0.0000 H   0  0  0  0  0  0  0  0  0  0  0  0
   12.3181   -1.0314    0.0000 H   0  0  0  0  0  0  0  0  0  0  0  0
   15.3686    0.3630    0.0000 H   0  0  0  0  0  0  0  0  0  0  0  0
   13.8172   -1.0837    0.0000 H   0  0  0  0  0  0  0  0  0  0  0  0
   13.9219    1.9145    0.0000 H   0  0  0  0  0  0  0  0  0  0  0  0
   10.1490   -1.2679    0.0000 H   0  0  0  0  0  0  0  0  0  0  0  0
    8.2628   -0.8670    0.0000 H   0  0  0  0  0  0  0  0  0  0  0  0
  1  2  1  0
  2  3  1  0
  2  4  1  0
  2  5  1  0
  6  1  1  0
  1  7  1  0
  1  8  1  0
  9  6  1  0
  6 10  1  0
  6 11  1  0
 12  9  1  0
 13  9  1  0
 14 12  1  0
 12 15  1  0
 12 16  1  0
  4 13  1  0
 13 17  1  0
 13 18  1  0
 19 14  2  0
 14 20  1  0
 21 19  1  0
 19 22  1  0
 20 23  2  0
 20 24  1  0
 25 21  2  0
 23 25  1  0
 23 26  1  0
 27 25  1  0
 28 27  1  0
 27 29  1  0
 30 28  2  0
 28 31  1  0
 32 30  1  0
 31 33  2  0
 34 32  2  0
 32 35  1  0
 33 36  1  0
 33 34  1  0
 37 34  1  0
 36 38  2  0
 39 36  1  0
 38 40  1  0
 38 41  1  0
 42 39  2  0
 39 43  1  0
 40 44  1  0
 40 45  2  0
 46 42  1  0
 42 45  1  0
 45 47  1  0
 48 46  1  0
 46 49  1  0
 47 48  2  0
 48 50  1  0
 49 51  1  0
 49 52  1  0
 49 53  1  0
 50 54  1  0
 50 55  1  0
 50 56  1  0
 51 57  1  0
 51 58  1  0
 51 59  1  0
 52 60  1  0
 52 61  1  0
 52 62  1  0
  3 63  1  0
  3 64  1  0
  3 65  1  0
 63 66  1  0
 63 67  1  0
 63 68  1  0
  4 69  1  0
  4 70  1  0
M  CHG  2   2   1   5  -1
M  END
>  <SMILES>  (9) 
CC[N+]1([O-])CCN(Cc2ccc(Nc3ncc(F)c(-c4cc(F)c5nc(C)n(C(C)C)c5c4)n3)nc2)CC1

>  <Molecular Weight>  (9) 
522.6

>  <Substrate_ID>  (9) 
MOL0056

>  <Substrate>  (9) 


>  <Substrate_SMILES>  (9) 
CCN1CCN(Cc2ccc(Nc3ncc(F)c(-c4cc(F)c5nc(C)n(C(C)C)c5c4)n3)nc2)CC1

>  <Reaction>  (9) 
N-oxidation_(tertiary_N),N-oxidation

>  <Score>  (9) 
0.0803

>  <Reaction_Score>  (9) 
0.0088

>  <Bond_Score>  (9) 
0.7318

>  <Rank>  (9) 
7

>  <Subtype>  (9) 
REACTION

>  <Subtype_Scores>  (9) 
[REACTION] SOM_score: 0.7318, Reaction_score: 0.0088, Score: 0.0803


$$$$

     RDKit          2D

 70 74  0  0  0  0  0  0  0  0999 V2000
    7.5272    3.5312    0.0000 C   0  0  0  0  0  0  0  0  0 26  0  0
    8.6419    2.5275    0.0000 N   0  0  0  0  0  4  0  0  0  9  0  0
    9.4368    3.7995    0.0000 C   0  0  0  0  0  0  0  0  0 24  0  0
    9.3461    1.2030    0.0000 C   0  0  0  0  0  0  0  0  0 25  0  0
    7.4599    1.6040    0.0000 O   0  0  0  0  0  1  0  0  0 38  0  0
    6.4125    4.5348    0.0000 C   0  0  0  0  0  0  0  0  0 27  0  0
    7.9844    4.1842    0.0000 H   0  0  0  0  0  0  0  0  0  0  0  0
    6.5235    2.4164    0.0000 H   0  0  0  0  0  0  0  0  0  0  0  0
    6.7244    6.0021    0.0000 C   0  0  0  0  0  0  0  0  0 16  0  0
    4.9859    4.0713    0.0000 C   0  0  0  0  0  0  0  0  0 15  0  0
    5.6097    7.0058    0.0000 N   0  0  0  0  0  0  0  0  0  3  0  0
    8.1510    6.4656    0.0000 H   0  0  0  0  0  0  0  0  0  0  0  0
    3.8712    5.0750    0.0000 C   0  0  0  0  0  0  0  0  0 17  0  0
    4.6741    2.6041    0.0000 H   0  0  0  0  0  0  0  0  0  0  0  0
    4.1831    6.5422    0.0000 C   0  0  0  0  0  0  0  0  0 29  0  0
    2.4446    4.6115    0.0000 H   0  0  0  0  0  0  0  0  0  0  0  0
    3.0684    7.5459    0.0000 N   0  0  0  0  0  0  0  0  0  7  0  0
    1.6418    7.0824    0.0000 C   0  0  0  0  0  0  0  0  0 30  0  0
    3.3802    9.0132    0.0000 H   0  0  0  0  0  0  0  0  0  0  0  0
    0.5271    8.0861    0.0000 N   0  0  0  0  0  0  0  0  0  4  0  0
    1.3299    5.6152    0.0000 N   0  0  0  0  0  0  0  0  0  5  0  0
   -0.8995    7.6226    0.0000 C   0  0  0  0  0  0  0  0  0 18  0  0
   -0.0967    5.1517    0.0000 C   0  0  0  0  0  0  0  0  0 32  0  0
   -1.2114    6.1554    0.0000 C   0  0  0  0  0  0  0  0  0 31  0  0
   -2.0143    8.6263    0.0000 H   0  0  0  0  0  0  0  0  0  0  0  0
   -0.4086    3.6844    0.0000 C   0  0  0  0  0  0  0  0  0 28  0  0
   -2.6380    5.6918    0.0000 F   0  0  0  0  0  0  0  0  0  1  0  0
   -1.8351    3.2209    0.0000 C   0  0  0  0  0  0  0  0  0 19  0  0
    0.7062    2.6807    0.0000 C   0  0  0  0  0  0  0  0  0 20  0  0
   -2.1470    1.7537    0.0000 C   0  0  0  0  0  0  0  0  0 33  0  0
   -2.9499    4.2246    0.0000 H   0  0  0  0  0  0  0  0  0  0  0  0
    0.3943    1.2135    0.0000 C   0  0  0  0  0  0  0  0  0 36  0  0
    2.0656    3.3147    0.0000 H   0  0  0  0  0  0  0  0  0  0  0  0
   -3.5736    1.2902    0.0000 F   0  0  0  0  0  0  0  0  0  2  0  0
   -1.0323    0.7500    0.0000 C   0  0  0  0  0  0  0  0  0 35  0  0
    1.2760    0.0000    0.0000 N   0  0  0  0  0  0  0  0  0 10  0  0
   -1.0323   -0.7500    0.0000 N   0  0  0  0  0  0  0  0  0  6  0  0
    0.3943   -1.2135    0.0000 C   0  0  0  0  0  0  0  0  0 34  0  0
    2.7760    0.0000    0.0000 C   0  0  0  0  0  0  0  0  0 37  0  0
    0.8578   -2.6401    0.0000 C   0  0  0  0  0  0  0  0  0 12  0  0
    2.7760    1.5000    0.0000 C   0  0  0  0  0  0  0  0  0 13  0  0
    2.7760   -1.5000    0.0000 C   0  0  0  0  0  0  0  0  0 14  0  0
    4.2760    0.0000    0.0000 H   0  0  0  0  0  0  0  0  0  0  0  0
    1.3213   -4.0667    0.0000 H   0  0  0  0  0  0  0  0  0  0  0  0
   -0.5688   -3.1036    0.0000 H   0  0  0  0  0  0  0  0  0  0  0  0
    2.2844   -2.1766    0.0000 H   0  0  0  0  0  0  0  0  0  0  0  0
    2.9588    2.9888    0.0000 H   0  0  0  0  0  0  0  0  0  0  0  0
    1.2760    1.5000    0.0000 H   0  0  0  0  0  0  0  0  0  0  0  0
    4.2760    1.5000    0.0000 H   0  0  0  0  0  0  0  0  0  0  0  0
    2.7760   -3.0000    0.0000 H   0  0  0  0  0  0  0  0  0  0  0  0
    4.2760   -1.5000    0.0000 H   0  0  0  0  0  0  0  0  0  0  0  0
    1.2760   -1.5000    0.0000 H   0  0  0  0  0  0  0  0  0  0  0  0
   10.9359    3.7472    0.0000 C   0  0  0  0  0  0  0  0  0 22  0  0
    9.7487    5.2668    0.0000 H   0  0  0  0  0  0  0  0  0  0  0  0
    8.7396    4.1860    0.0000 H   0  0  0  0  0  0  0  0  0  0  0  0
   11.6401    2.4228    0.0000 N   0  0  0  0  0  0  0  0  0  8  0  0
   12.2953    4.3811    0.0000 H   0  0  0  0  0  0  0  0  0  0  0  0
   10.7271    5.2326    0.0000 H   0  0  0  0  0  0  0  0  0  0  0  0
   13.1392    2.3704    0.0000 C   0  0  0  0  0  0  0  0  0 21  0  0
   10.8452    1.1507    0.0000 C   0  0  0  0  0  0  0  0  0 23  0  0
   14.6383    2.3181    0.0000 C   0  0  0  0  0  0  0  0  0 11  0  0
   13.3739    3.8519    0.0000 H   0  0  0  0  0  0  0  0  0  0  0  0
   13.2700    0.8761    0.0000 H   0  0  0  0  0  0  0  0  0  0  0  0
   10.5334   -0.3165    0.0000 H   0  0  0  0  0  0  0  0  0  0  0  0
   12.1571    0.4234    0.0000 H   0  0  0  0  0  0  0  0  0  0  0  0
   16.1374    2.2657    0.0000 H   0  0  0  0  0  0  0  0  0  0  0  0
   14.6906    3.8171    0.0000 H   0  0  0  0  0  0  0  0  0  0  0  0
   14.5859    0.8190    0.0000 H   0  0  0  0  0  0  0  0  0  0  0  0
    7.9196    0.7395    0.0000 H   0  0  0  0  0  0  0  0  0  0  0  0
    9.5549   -0.2824    0.0000 H   0  0  0  0  0  0  0  0  0  0  0  0
  1  2  1  0
  2  3  1  0
  2  4  1  0
  2  5  1  0
  6  1  1  0
  1  7  1  0
  1  8  1  0
  9  6  2  0
  6 10  1  0
 11  9  1  0
  9 12  1  0
 10 13  2  0
 10 14  1  0
 15 11  2  0
 13 15  1  0
 13 16  1  0
 17 15  1  0
 18 17  1  0
 17 19  1  0
 20 18  2  0
 18 21  1  0
 22 20  1  0
 21 23  2  0
 24 22  2  0
 22 25  1  0
 23 26  1  0
 23 24  1  0
 27 24  1  0
 26 28  2  0
 29 26  1  0
 28 30  1  0
 28 31  1  0
 32 29  2  0
 29 33  1  0
 30 34  1  0
 30 35  2  0
 36 32  1  0
 32 35  1  0
 35 37  1  0
 38 36  1  0
 36 39  1  0
 37 38  2  0
 38 40  1  0
 39 41  1  0
 39 42  1  0
 39 43  1  0
 40 44  1  0
 40 45  1  0
 40 46  1  0
 41 47  1  0
 41 48  1  0
 41 49  1  0
 42 50  1  0
 42 51  1  0
 42 52  1  0
  3 53  1  0
  3 54  1  0
  3 55  1  0
 53 56  1  0
 53 57  1  0
 53 58  1  0
 56 59  1  0
 56 60  1  0
 59 61  1  0
 59 62  1  0
 59 63  1  0
 60  4  1  0
 60 64  1  0
 60 65  1  0
 61 66  1  0
 61 67  1  0
 61 68  1  0
  4 69  1  0
  4 70  1  0
M  CHG  2   2   1   5  -1
M  END
>  <SMILES>  (10) 
CCN1CC[N+]([O-])(Cc2ccc(Nc3ncc(F)c(-c4cc(F)c5nc(C)n(C(C)C)c5c4)n3)nc2)CC1

>  <Molecular Weight>  (10) 
522.6

>  <Substrate_ID>  (10) 
MOL0056

>  <Substrate>  (10) 


>  <Substrate_SMILES>  (10) 
CCN1CCN(Cc2ccc(Nc3ncc(F)c(-c4cc(F)c5nc(C)n(C(C)C)c5c4)n3)nc2)CC1

>  <Reaction>  (10) 
N-oxidation_(tertiary_N),N-oxidation

>  <Score>  (10) 
0.0519

>  <Reaction_Score>  (10) 
0.0054

>  <Bond_Score>  (10) 
0.5026

>  <Rank>  (10) 
8

>  <Subtype>  (10) 
REACTION

>  <Subtype_Scores>  (10) 
[REACTION] SOM_score: 0.5026, Reaction_score: 0.0054, Score: 0.0519


$$$$
