
     RDKit          2D

 54 55  0  0  0  0  0  0  0  0999 V2000
    6.3567    2.3795    0.0000 C   0  0  0  0  0  0  0  0  0 18  0  0
    7.5058    3.3437    0.0000 C   0  0  0  0  0  0  0  0  0  4  0  0
    8.6549    4.3079    0.0000 O   0  0  0  0  0  0  0  0  0 24  0  0
    4.9472    2.8925    0.0000 C   0  0  0  0  0  0  0  0  0  9  0  0
    6.6172    0.9023    0.0000 C   0  0  0  0  0  0  0  0  0  5  0  0
    3.7981    1.9284    0.0000 C   0  0  0  0  0  0  0  0  0 13  0  0
    4.6867    4.3698    0.0000 H   0  0  0  0  0  0  0  0  0  0  0  0
    6.8777   -0.5749    0.0000 H   0  0  0  0  0  0  0  0  0  0  0  0
    8.0944    1.1628    0.0000 H   0  0  0  0  0  0  0  0  0  0  0  0
    5.4553    0.5470    0.0000 H   0  0  0  0  0  0  0  0  0  0  0  0
    2.6491    0.9642    0.0000 C   0  0  0  0  0  0  0  0  0 17  0  0
    4.4598    0.9094    0.0000 H   0  0  0  0  0  0  0  0  0  0  0  0
    2.8340    3.0774    0.0000 H   0  0  0  0  0  0  0  0  0  0  0  0
    1.5000    0.0000    0.0000 C   0  0  0  0  0  0  0  0  0 23  0  0
    1.6849    2.1132    0.0000 H   0  0  0  0  0  0  0  0  0  0  0  0
    3.2321    0.4205    0.0000 H   0  0  0  0  0  0  0  0  0  0  0  0
    0.7500   -1.2990    0.0000 C   0  0  0  0  0  0  0  0  0  8  0  0
    2.6491   -0.9642    0.0000 C   0  0  0  0  0  0  0  0  0  6  0  0
    0.7500    1.2990    0.0000 O   0  0  0  0  0  0  0  0  0  2  0  0
   -0.7500   -1.2990    0.0000 C   0  0  0  0  0  0  0  0  0  7  0  0
    1.3361   -2.6798    0.0000 H   0  0  0  0  0  0  0  0  0  0  0  0
    3.7981   -1.9284    0.0000 H   0  0  0  0  0  0  0  0  0  0  0  0
    3.2321   -0.4205    0.0000 H   0  0  0  0  0  0  0  0  0  0  0  0
    1.8321   -2.2222    0.0000 H   0  0  0  0  0  0  0  0  0  0  0  0
   -0.7500    1.2990    0.0000 C   0  0  0  0  0  0  0  0  0 21  0  0
   -1.5000    0.0000    0.0000 C   0  0  0  0  0  0  0  0  0 22  0  0
   -1.5000   -2.5981    0.0000 H   0  0  0  0  0  0  0  0  0  0  0  0
   -1.5000    2.5981    0.0000 C   0  0  0  0  0  0  0  0  0 11  0  0
   -3.0000    0.0000    0.0000 C   0  0  0  0  0  0  0  0  0 20  0  0
   -3.0000    2.5981    0.0000 C   0  0  0  0  0  0  0  0  0 19  0  0
   -0.7500    3.8971    0.0000 H   0  0  0  0  0  0  0  0  0  0  0  0
   -3.7500   -1.2990    0.0000 O   0  0  0  0  0  0  0  0  0  1  0  0
   -3.7500    1.2990    0.0000 C   0  0  0  0  0  0  0  0  0 10  0  0
   -3.7500    3.8971    0.0000 C   0  0  0  0  0  0  0  0  0 16  0  0
   -5.2500   -1.2990    0.0000 H   0  0  0  0  0  0  0  0  0  0  0  0
   -5.2500    1.2990    0.0000 H   0  0  0  0  0  0  0  0  0  0  0  0
   -4.5000    5.1962    0.0000 C   0  0  0  0  0  0  0  0  0 15  0  0
   -5.0490    3.1471    0.0000 H   0  0  0  0  0  0  0  0  0  0  0  0
   -2.4510    4.6471    0.0000 H   0  0  0  0  0  0  0  0  0  0  0  0
   -5.2500    6.4952    0.0000 C   0  0  0  0  0  0  0  0  0 14  0  0
   -3.2010    5.9462    0.0000 H   0  0  0  0  0  0  0  0  0  0  0  0
   -5.7990    4.4462    0.0000 H   0  0  0  0  0  0  0  0  0  0  0  0
   -6.0000    7.7942    0.0000 C   0  0  0  0  0  0  0  0  0 12  0  0
   -6.5490    5.7452    0.0000 H   0  0  0  0  0  0  0  0  0  0  0  0
   -3.9510    7.2452    0.0000 H   0  0  0  0  0  0  0  0  0  0  0  0
   -6.7500    9.0933    0.0000 C   0  0  0  0  0  0  0  0  0  3  0  0
   -4.7010    8.5442    0.0000 H   0  0  0  0  0  0  0  0  0  0  0  0
   -7.2990    7.0442    0.0000 H   0  0  0  0  0  0  0  0  0  0  0  0
   -7.5000   10.3923    0.0000 H   0  0  0  0  0  0  0  0  0  0  0  0
   -8.0490    8.3433    0.0000 H   0  0  0  0  0  0  0  0  0  0  0  0
   -5.4510    9.8433    0.0000 H   0  0  0  0  0  0  0  0  0  0  0  0
    8.4700    2.1946    0.0000 H   0  0  0  0  0  0  0  0  0  0  0  0
    6.5416    4.4928    0.0000 H   0  0  0  0  0  0  0  0  0  0  0  0
    8.3944    5.7851    0.0000 H   0  0  0  0  0  0  0  0  0  0  0  0
  1  2  1  0
  2  3  1  0
  4  1  2  3
  1  5  1  0
  6  4  1  0
  4  7  1  0
  5  8  1  0
  5  9  1  0
  5 10  1  0
 11  6  1  0
  6 12  1  0
  6 13  1  0
 14 11  1  1
 11 15  1  0
 11 16  1  0
 17 14  1  0
 14 18  1  0
 14 19  1  0
 20 17  2  0
 17 21  1  0
 18 22  1  0
 18 23  1  0
 18 24  1  0
 19 25  1  0
 26 20  1  0
 20 27  1  0
 28 25  2  0
 25 26  1  0
 26 29  2  0
 30 28  1  0
 28 31  1  0
 32 29  1  0
 29 33  1  0
 33 30  2  0
 30 34  1  0
 32 35  1  0
 33 36  1  0
 34 37  1  0
 34 38  1  0
 34 39  1  0
 37 40  1  0
 37 41  1  0
 37 42  1  0
 40 43  1  0
 40 44  1  0
 40 45  1  0
 43 46  1  0
 43 47  1  0
 43 48  1  0
 46 49  1  0
 46 50  1  0
 46 51  1  0
  2 52  1  0
  2 53  1  0
  3 54  1  0
M  END
>  <SMILES>  (1) 
CCCCCc1cc(O)c2c(c1)OC(C)(CCC=C(C)CO)C=C2

>  <Molecular Weight>  (1) 
330.5

>  <Substrate_ID>  (1) 
MOL0039

>  <Substrate>  (1) 


>  <Substrate_SMILES>  (1) 
CCCCCc1cc(O)c2c(c1)OC(C)(CCC=C(C)C)C=C2

>  <Reaction>  (1) 
aliphatic_hydroxylation_(primary_carbon_next_to_SP2_or_SP1),aliphatic hydroxylation

>  <Score>  (1) 
0.2414

>  <Reaction_Score>  (1) 
0.236

>  <Bond_Score>  (1) 
0.2469

>  <Rank>  (1) 
1

>  <Subtype>  (1) 
REACTION

>  <Subtype_Scores>  (1) 
[REACTION] SOM_score: 0.2469, Reaction_score: 0.2360, Score: 0.2414


$$$$

     RDKit          2D

 54 55  0  0  0  0  0  0  0  0999 V2000
    3.0000   -7.7942    0.0000 C   0  0  0  0  0  0  0  0  0 14  0  0
    3.7500   -9.0933    0.0000 C   0  0  0  0  0  0  0  0  0 12  0  0
    5.0490   -8.3433    0.0000 O   0  0  0  0  0  0  0  0  0 24  0  0
    4.5000  -10.3923    0.0000 C   0  0  0  0  0  0  0  0  0  3  0  0
    2.2500   -6.4952    0.0000 C   0  0  0  0  0  0  0  0  0 15  0  0
    4.2990   -7.0442    0.0000 H   0  0  0  0  0  0  0  0  0  0  0  0
    1.7010   -8.5442    0.0000 H   0  0  0  0  0  0  0  0  0  0  0  0
    1.5000   -5.1962    0.0000 C   0  0  0  0  0  0  0  0  0 16  0  0
    0.9510   -7.2452    0.0000 H   0  0  0  0  0  0  0  0  0  0  0  0
    3.5490   -5.7452    0.0000 H   0  0  0  0  0  0  0  0  0  0  0  0
    0.7500   -3.8971    0.0000 C   0  0  0  0  0  0  0  0  0 19  0  0
    0.2010   -5.9462    0.0000 H   0  0  0  0  0  0  0  0  0  0  0  0
    2.7990   -4.4462    0.0000 H   0  0  0  0  0  0  0  0  0  0  0  0
   -0.7500   -3.8971    0.0000 C   0  0  0  0  0  0  0  0  0 10  0  0
    1.5000   -2.5981    0.0000 C   0  0  0  0  0  0  0  0  0 11  0  0
   -1.5000   -2.5981    0.0000 C   0  0  0  0  0  0  0  0  0 20  0  0
   -1.5000   -5.1962    0.0000 H   0  0  0  0  0  0  0  0  0  0  0  0
    0.7500   -1.2990    0.0000 C   0  0  0  0  0  0  0  0  0 21  0  0
    3.0000   -2.5981    0.0000 H   0  0  0  0  0  0  0  0  0  0  0  0
   -3.0000   -2.5981    0.0000 O   0  0  0  0  0  0  0  0  0  1  0  0
   -0.7500   -1.2990    0.0000 C   0  0  0  0  0  0  0  0  0 22  0  0
    1.5000    0.0000    0.0000 O   0  0  0  0  0  0  0  0  0  2  0  0
   -3.7500   -1.2990    0.0000 H   0  0  0  0  0  0  0  0  0  0  0  0
   -1.5000    0.0000    0.0000 C   0  0  0  0  0  0  0  0  0  7  0  0
    0.7500    1.2990    0.0000 C   0  0  0  0  0  0  0  0  0 23  0  0
   -0.7500    1.2990    0.0000 C   0  0  0  0  0  0  0  0  0  8  0  0
   -3.0000    0.0000    0.0000 H   0  0  0  0  0  0  0  0  0  0  0  0
    0.4895    2.7762    0.0000 C   0  0  0  0  0  0  0  0  0  6  0  0
    2.1595    1.8121    0.0000 C   0  0  0  0  0  0  0  0  0 17  0  0
   -1.4081    2.1723    0.0000 H   0  0  0  0  0  0  0  0  0  0  0  0
    0.2291    4.2535    0.0000 H   0  0  0  0  0  0  0  0  0  0  0  0
    1.2519    3.0093    0.0000 H   0  0  0  0  0  0  0  0  0  0  0  0
   -0.6025    2.7190    0.0000 H   0  0  0  0  0  0  0  0  0  0  0  0
    3.5691    2.3251    0.0000 C   0  0  0  0  0  0  0  0  0 13  0  0
    2.6726    0.4025    0.0000 H   0  0  0  0  0  0  0  0  0  0  0  0
    1.9802    2.5888    0.0000 H   0  0  0  0  0  0  0  0  0  0  0  0
    4.9786    2.8381    0.0000 C   0  0  0  0  0  0  0  0  0  9  0  0
    2.8881    3.6616    0.0000 H   0  0  0  0  0  0  0  0  0  0  0  0
    4.0821    0.9156    0.0000 H   0  0  0  0  0  0  0  0  0  0  0  0
    5.2391    4.3153    0.0000 C   0  0  0  0  0  0  0  0  0 18  0  0
    6.1277    1.8739    0.0000 H   0  0  0  0  0  0  0  0  0  0  0  0
    6.6486    4.8284    0.0000 C   0  0  0  0  0  0  0  0  0  4  0  0
    4.0900    5.2795    0.0000 C   0  0  0  0  0  0  0  0  0  5  0  0
    8.0582    5.3414    0.0000 H   0  0  0  0  0  0  0  0  0  0  0  0
    6.1356    6.2379    0.0000 H   0  0  0  0  0  0  0  0  0  0  0  0
    7.1617    3.4188    0.0000 H   0  0  0  0  0  0  0  0  0  0  0  0
    2.9410    6.2437    0.0000 H   0  0  0  0  0  0  0  0  0  0  0  0
    5.0542    6.4286    0.0000 H   0  0  0  0  0  0  0  0  0  0  0  0
    2.9930    4.2566    0.0000 H   0  0  0  0  0  0  0  0  0  0  0  0
    2.4510   -9.8433    0.0000 H   0  0  0  0  0  0  0  0  0  0  0  0
    6.4298   -8.9293    0.0000 H   0  0  0  0  0  0  0  0  0  0  0  0
    5.2500  -11.6913    0.0000 H   0  0  0  0  0  0  0  0  0  0  0  0
    3.2010  -11.1423    0.0000 H   0  0  0  0  0  0  0  0  0  0  0  0
    5.8808   -9.8062    0.0000 H   0  0  0  0  0  0  0  0  0  0  0  0
  1  2  1  0
  2  3  1  0
  2  4  1  0
  5  1  1  0
  1  6  1  0
  1  7  1  0
  8  5  1  0
  5  9  1  0
  5 10  1  0
 11  8  1  0
  8 12  1  0
  8 13  1  0
 14 11  2  0
 11 15  1  0
 16 14  1  0
 14 17  1  0
 15 18  2  0
 15 19  1  0
 20 16  1  0
 21 16  2  0
 18 21  1  0
 22 18  1  0
 20 23  1  0
 21 24  1  0
 25 22  1  0
 24 26  2  0
 24 27  1  0
 26 25  1  0
 25 28  1  1
 25 29  1  0
 26 30  1  0
 28 31  1  0
 28 32  1  0
 28 33  1  0
 29 34  1  0
 29 35  1  0
 29 36  1  0
 34 37  1  0
 34 38  1  0
 34 39  1  0
 37 40  2  3
 37 41  1  0
 40 42  1  0
 40 43  1  0
 42 44  1  0
 42 45  1  0
 42 46  1  0
 43 47  1  0
 43 48  1  0
 43 49  1  0
  2 50  1  0
  3 51  1  0
  4 52  1  0
  4 53  1  0
  4 54  1  0
M  END
>  <SMILES>  (2) 
CC(C)=CCCC1(C)C=Cc2c(O)cc(CCCC(C)O)cc2O1

>  <Molecular Weight>  (2) 
330.5

>  <Substrate_ID>  (2) 
MOL0039

>  <Substrate>  (2) 


>  <Substrate_SMILES>  (2) 
CCCCCc1cc(O)c2c(c1)OC(C)(CCC=C(C)C)C=C2

>  <Reaction>  (2) 
aliphatic_hydroxylation_(sec_carbon,next_to_CH3),aliphatic hydroxylation

>  <Score>  (2) 
0.1429

>  <Reaction_Score>  (2) 
0.1442

>  <Bond_Score>  (2) 
0.1417

>  <Rank>  (2) 
2

>  <Subtype>  (2) 
REACTION

>  <Subtype_Scores>  (2) 
[REACTION] SOM_score: 0.1417, Reaction_score: 0.1442, Score: 0.1429


$$$$
