
     RDKit          2D

 69 72  0  0  0  0  0  0  0  0999 V2000
    7.2669    1.3463    0.0000 C   0  0  0  0  0  0  0  0  0 37  0  0
    8.2706    0.2316    0.0000 N   0  0  0  0  0  0  0  0  0 12  0  0
    7.8071   -1.1950    0.0000 C   0  0  0  0  0  0  0  0  0 29  0  0
    5.7997    1.0344    0.0000 N   0  0  0  0  0  0  0  0  0  8  0  0
    7.7304    2.7729    0.0000 C   0  0  0  0  0  0  0  0  0 35  0  0
    4.7960    2.1491    0.0000 C   0  0  0  0  0  0  0  0  0 36  0  0
    9.1976    3.0847    0.0000 N   0  0  0  0  0  0  0  0  0 10  0  0
    6.7267    3.8876    0.0000 C   0  0  0  0  0  0  0  0  0 24  0  0
    3.3287    1.8373    0.0000 O   0  0  0  0  0  0  0  0  0  5  0  0
    5.2595    3.5757    0.0000 C   0  0  0  0  0  0  0  0  0 34  0  0
    9.6612    4.5113    0.0000 C   0  0  0  0  0  0  0  0  0 31  0  0
   10.2013    1.9700    0.0000 H   0  0  0  0  0  0  0  0  0  0  0  0
    7.1902    5.3142    0.0000 H   0  0  0  0  0  0  0  0  0  0  0  0
    2.8652    0.4107    0.0000 C   0  0  0  0  0  0  0  0  0 30  0  0
    4.2558    4.6904    0.0000 N   0  0  0  0  0  0  0  0  0  9  0  0
    8.6575    5.6260    0.0000 O   0  0  0  0  0  0  0  0  0  4  0  0
   11.1284    4.8232    0.0000 C   0  0  0  0  0  0  0  0  0 19  0  0
    2.4017   -1.0159    0.0000 C   0  0  0  0  0  0  0  0  0 41  0  0
    4.2918   -0.0528    0.0000 H   0  0  0  0  0  0  0  0  0  0  0  0
    1.4386    0.8742    0.0000 H   0  0  0  0  0  0  0  0  0  0  0  0
    2.7886    4.3786    0.0000 C   0  0  0  0  0  0  0  0  0 33  0  0
    4.7193    6.1170    0.0000 H   0  0  0  0  0  0  0  0  0  0  0  0
   11.5919    6.2498    0.0000 C   0  0  0  0  0  0  0  0  0 14  0  0
   12.1321    3.7085    0.0000 H   0  0  0  0  0  0  0  0  0  0  0  0
    1.9382   -2.4425    0.0000 F   0  0  0  0  0  0  0  0  0  1  0  0
    3.8283   -1.4794    0.0000 F   0  0  0  0  0  0  0  0  0  2  0  0
    0.9751   -0.5524    0.0000 F   0  0  0  0  0  0  0  0  0  3  0  0
    2.3250    2.9520    0.0000 N   0  0  0  0  0  0  0  0  0  6  0  0
    1.7849    5.4933    0.0000 N   0  0  0  0  0  0  0  0  0  7  0  0
   13.0591    6.5616    0.0000 H   0  0  0  0  0  0  0  0  0  0  0  0
   10.5882    7.3645    0.0000 H   0  0  0  0  0  0  0  0  0  0  0  0
    0.8578    2.6401    0.0000 C   0  0  0  0  0  0  0  0  0 22  0  0
    0.3177    5.1814    0.0000 C   0  0  0  0  0  0  0  0  0 32  0  0
   -0.1459    3.7548    0.0000 C   0  0  0  0  0  0  0  0  0 23  0  0
    0.3943    1.2135    0.0000 H   0  0  0  0  0  0  0  0  0  0  0  0
   -0.6860    6.2961    0.0000 C   0  0  0  0  0  0  0  0  0 38  0  0
   -1.6131    3.4430    0.0000 H   0  0  0  0  0  0  0  0  0  0  0  0
   -2.1778    6.1393    0.0000 C   0  0  0  0  0  0  0  0  0 27  0  0
   -0.3742    7.7634    0.0000 C   0  0  0  0  0  0  0  0  0 39  0  0
   -2.7879    7.5097    0.0000 N   0  0  0  0  0  0  0  0  0 13  0  0
   -2.9278    4.8403    0.0000 H   0  0  0  0  0  0  0  0  0  0  0  0
    0.9249    8.5134    0.0000 C   0  0  0  0  0  0  0  0  0 25  0  0
   -1.6732    8.5134    0.0000 C   0  0  0  0  0  0  0  0  0 40  0  0
   -4.2552    7.8215    0.0000 C   0  0  0  0  0  0  0  0  0 18  0  0
    0.9249   10.0134    0.0000 C   0  0  0  0  0  0  0  0  0 20  0  0
    2.2239    7.7634    0.0000 H   0  0  0  0  0  0  0  0  0  0  0  0
   -1.6732   10.0134    0.0000 C   0  0  0  0  0  0  0  0  0 26  0  0
   -5.7224    8.1334    0.0000 H   0  0  0  0  0  0  0  0  0  0  0  0
   -4.5670    6.3543    0.0000 H   0  0  0  0  0  0  0  0  0  0  0  0
   -3.9433    9.2887    0.0000 H   0  0  0  0  0  0  0  0  0  0  0  0
   -0.3742   10.7634    0.0000 C   0  0  0  0  0  0  0  0  0 21  0  0
    2.2239   10.7634    0.0000 H   0  0  0  0  0  0  0  0  0  0  0  0
   -2.9723   10.7634    0.0000 H   0  0  0  0  0  0  0  0  0  0  0  0
   -0.3742   12.2634    0.0000 H   0  0  0  0  0  0  0  0  0  0  0  0
    7.3435   -2.6216    0.0000 C   0  0  0  0  0  0  0  0  0 28  0  0
    6.3805   -0.7315    0.0000 H   0  0  0  0  0  0  0  0  0  0  0  0
    9.2336   -1.6585    0.0000 H   0  0  0  0  0  0  0  0  0  0  0  0
    6.8800   -4.0482    0.0000 N   0  0  0  0  0  0  0  0  0 11  0  0
    5.9169   -2.1581    0.0000 H   0  0  0  0  0  0  0  0  0  0  0  0
    8.7701   -3.0851    0.0000 H   0  0  0  0  0  0  0  0  0  0  0  0
    7.8837   -5.1629    0.0000 C   0  0  0  0  0  0  0  0  0 15  0  0
    5.4128   -4.3601    0.0000 C   0  0  0  0  0  0  0  0  0 16  0  0
    8.8874   -6.2776    0.0000 H   0  0  0  0  0  0  0  0  0  0  0  0
    6.7690   -6.1666    0.0000 H   0  0  0  0  0  0  0  0  0  0  0  0
    8.9984   -4.1592    0.0000 H   0  0  0  0  0  0  0  0  0  0  0  0
    3.9456   -4.6719    0.0000 H   0  0  0  0  0  0  0  0  0  0  0  0
    5.7246   -5.8273    0.0000 H   0  0  0  0  0  0  0  0  0  0  0  0
    5.1009   -2.8928    0.0000 H   0  0  0  0  0  0  0  0  0  0  0  0
    9.7378    0.5434    0.0000 H   0  0  0  0  0  0  0  0  0  0  0  0
  1  2  1  0
  2  3  1  0
  4  1  2  0
  1  5  1  0
  6  4  1  0
  5  7  1  0
  5  8  2  0
  9  6  1  0
 10  6  2  0
  7 11  1  0
  7 12  1  0
  8 10  1  0
  8 13  1  0
 14  9  1  0
 10 15  1  0
 11 16  2  0
 11 17  1  0
 18 14  1  0
 14 19  1  0
 14 20  1  0
 15 21  1  0
 15 22  1  0
 17 23  2  0
 17 24  1  0
 25 18  1  0
 18 26  1  0
 18 27  1  0
 21 28  2  0
 29 21  1  0
 23 30  1  0
 23 31  1  0
 28 32  1  0
 33 29  2  0
 32 34  2  0
 32 35  1  0
 34 33  1  0
 33 36  1  0
 34 37  1  0
 36 38  2  0
 39 36  1  0
 38 40  1  0
 38 41  1  0
 42 39  2  0
 39 43  1  0
 40 44  1  0
 40 43  1  0
 45 42  1  0
 42 46  1  0
 43 47  2  0
 44 48  1  0
 44 49  1  0
 44 50  1  0
 51 45  2  0
 45 52  1  0
 47 51  1  0
 47 53  1  0
 51 54  1  0
  3 55  1  0
  3 56  1  0
  3 57  1  0
 55 58  1  0
 55 59  1  0
 55 60  1  0
 58 61  1  0
 58 62  1  0
 61 63  1  0
 61 64  1  0
 61 65  1  0
 62 66  1  0
 62 67  1  0
 62 68  1  0
  2 69  1  0
M  END
>  <SMILES>  (1) 
C=CC(=O)Nc1cc(Nc2nccc(-c3cn(C)c4ccccc34)n2)c(OCC(F)(F)F)nc1NCCN(C)C

>  <Molecular Weight>  (1) 
554.6

>  <Substrate_ID>  (1) 
MOL0062

>  <Substrate>  (1) 


>  <Substrate_SMILES>  (1) 
C=CC(=O)Nc1cc(Nc2nccc(-c3cn(C)c4ccccc34)n2)c(OCC(F)(F)F)nc1N(C)CCN(C)C

>  <Reaction>  (1) 
N-demethylation_(R-N(CR)CH3)

>  <Score>  (1) 
0.8187

>  <Reaction_Score>  (1) 
0.7992

>  <Bond_Score>  (1) 
0.8387

>  <Rank>  (1) 
1

>  <Subtype>  (1) 
REACTION

>  <Subtype_Scores>  (1) 
[REACTION] SOM_score: 0.8387, Reaction_score: 0.7992, Score: 0.8187


$$$$

     RDKit          2D

 69 72  0  0  0  0  0  0  0  0999 V2000
    6.8800   -4.0482    0.0000 N   0  0  0  0  0  0  0  0  0 11  0  0
    7.3435   -2.6216    0.0000 C   0  0  0  0  0  0  0  0  0 28  0  0
    7.8837   -5.1629    0.0000 C   0  0  0  0  0  0  0  0  0 16  0  0
    7.8071   -1.1950    0.0000 C   0  0  0  0  0  0  0  0  0 29  0  0
    5.9169   -2.1581    0.0000 H   0  0  0  0  0  0  0  0  0  0  0  0
    8.7701   -3.0851    0.0000 H   0  0  0  0  0  0  0  0  0  0  0  0
    8.2706    0.2316    0.0000 N   0  0  0  0  0  0  0  0  0 12  0  0
    6.3805   -0.7315    0.0000 H   0  0  0  0  0  0  0  0  0  0  0  0
    9.2336   -1.6585    0.0000 H   0  0  0  0  0  0  0  0  0  0  0  0
    7.2669    1.3463    0.0000 C   0  0  0  0  0  0  0  0  0 37  0  0
    9.7378    0.5434    0.0000 C   0  0  0  0  0  0  0  0  0 17  0  0
    5.7997    1.0344    0.0000 N   0  0  0  0  0  0  0  0  0  8  0  0
    7.7304    2.7729    0.0000 C   0  0  0  0  0  0  0  0  0 35  0  0
   11.2050    0.8553    0.0000 H   0  0  0  0  0  0  0  0  0  0  0  0
   10.0497   -0.9238    0.0000 H   0  0  0  0  0  0  0  0  0  0  0  0
    9.6520    1.5238    0.0000 H   0  0  0  0  0  0  0  0  0  0  0  0
    4.7960    2.1491    0.0000 C   0  0  0  0  0  0  0  0  0 36  0  0
    9.1976    3.0847    0.0000 N   0  0  0  0  0  0  0  0  0 10  0  0
    6.7267    3.8876    0.0000 C   0  0  0  0  0  0  0  0  0 24  0  0
    3.3287    1.8373    0.0000 O   0  0  0  0  0  0  0  0  0  5  0  0
    5.2595    3.5757    0.0000 C   0  0  0  0  0  0  0  0  0 34  0  0
    9.6612    4.5113    0.0000 C   0  0  0  0  0  0  0  0  0 31  0  0
    9.9404    2.4391    0.0000 H   0  0  0  0  0  0  0  0  0  0  0  0
    7.1902    5.3142    0.0000 H   0  0  0  0  0  0  0  0  0  0  0  0
    2.8652    0.4107    0.0000 C   0  0  0  0  0  0  0  0  0 30  0  0
    4.2558    4.6904    0.0000 N   0  0  0  0  0  0  0  0  0  9  0  0
    8.6575    5.6260    0.0000 O   0  0  0  0  0  0  0  0  0  4  0  0
   11.1284    4.8232    0.0000 C   0  0  0  0  0  0  0  0  0 19  0  0
    2.4017   -1.0159    0.0000 C   0  0  0  0  0  0  0  0  0 41  0  0
    4.2918   -0.0528    0.0000 H   0  0  0  0  0  0  0  0  0  0  0  0
    1.4386    0.8742    0.0000 H   0  0  0  0  0  0  0  0  0  0  0  0
    2.7886    4.3786    0.0000 C   0  0  0  0  0  0  0  0  0 33  0  0
    4.7193    6.1170    0.0000 H   0  0  0  0  0  0  0  0  0  0  0  0
   11.5919    6.2498    0.0000 C   0  0  0  0  0  0  0  0  0 14  0  0
   12.1321    3.7085    0.0000 H   0  0  0  0  0  0  0  0  0  0  0  0
    2.1931   -2.0893    0.0000 F   0  0  0  0  0  0  0  0  0  1  0  0
    3.8283   -1.4794    0.0000 F   0  0  0  0  0  0  0  0  0  2  0  0
    1.3248   -1.2059    0.0000 F   0  0  0  0  0  0  0  0  0  3  0  0
    1.7849    5.4933    0.0000 N   0  0  0  0  0  0  0  0  0  6  0  0
    2.3250    2.9520    0.0000 N   0  0  0  0  0  0  0  0  0  7  0  0
   13.0591    6.5616    0.0000 H   0  0  0  0  0  0  0  0  0  0  0  0
   10.5882    7.3645    0.0000 H   0  0  0  0  0  0  0  0  0  0  0  0
    0.3177    5.1814    0.0000 C   0  0  0  0  0  0  0  0  0 22  0  0
    0.8578    2.6401    0.0000 C   0  0  0  0  0  0  0  0  0 32  0  0
   -0.1459    3.7548    0.0000 C   0  0  0  0  0  0  0  0  0 23  0  0
   -0.6860    6.2961    0.0000 H   0  0  0  0  0  0  0  0  0  0  0  0
    0.3943    1.2135    0.0000 C   0  0  0  0  0  0  0  0  0 38  0  0
   -1.6402    3.6241    0.0000 H   0  0  0  0  0  0  0  0  0  0  0  0
    1.2760    0.0000    0.0000 C   0  0  0  0  0  0  0  0  0 27  0  0
   -1.0323    0.7500    0.0000 C   0  0  0  0  0  0  0  0  0 39  0  0
    0.3943   -1.2135    0.0000 N   0  0  0  0  0  0  0  0  0 13  0  0
    2.1354   -0.2143    0.0000 H   0  0  0  0  0  0  0  0  0  0  0  0
   -2.3313    1.5000    0.0000 C   0  0  0  0  0  0  0  0  0 25  0  0
   -1.0323   -0.7500    0.0000 C   0  0  0  0  0  0  0  0  0 40  0  0
    0.8578   -2.6401    0.0000 C   0  0  0  0  0  0  0  0  0 18  0  0
   -3.6304    0.7500    0.0000 C   0  0  0  0  0  0  0  0  0 20  0  0
   -2.5142    2.9888    0.0000 H   0  0  0  0  0  0  0  0  0  0  0  0
   -2.3313   -1.5000    0.0000 C   0  0  0  0  0  0  0  0  0 26  0  0
    1.3213   -4.0667    0.0000 H   0  0  0  0  0  0  0  0  0  0  0  0
    1.9312   -2.4315    0.0000 H   0  0  0  0  0  0  0  0  0  0  0  0
   -0.5688   -3.1036    0.0000 H   0  0  0  0  0  0  0  0  0  0  0  0
   -3.6304   -0.7500    0.0000 C   0  0  0  0  0  0  0  0  0 21  0  0
   -4.9294    1.5000    0.0000 H   0  0  0  0  0  0  0  0  0  0  0  0
   -2.3313   -3.0000    0.0000 H   0  0  0  0  0  0  0  0  0  0  0  0
   -4.9294   -1.5000    0.0000 H   0  0  0  0  0  0  0  0  0  0  0  0
    8.8874   -6.2776    0.0000 H   0  0  0  0  0  0  0  0  0  0  0  0
    6.7690   -6.1666    0.0000 H   0  0  0  0  0  0  0  0  0  0  0  0
    8.9984   -4.1592    0.0000 H   0  0  0  0  0  0  0  0  0  0  0  0
    5.4128   -4.3601    0.0000 H   0  0  0  0  0  0  0  0  0  0  0  0
  1  2  1  0
  1  3  1  0
  4  2  1  0
  2  5  1  0
  2  6  1  0
  7  4  1  0
  4  8  1  0
  4  9  1  0
 10  7  1  0
  7 11  1  0
 12 10  2  0
 10 13  1  0
 11 14  1  0
 11 15  1  0
 11 16  1  0
 17 12  1  0
 13 18  1  0
 13 19  2  0
 20 17  1  0
 21 17  2  0
 18 22  1  0
 18 23  1  0
 19 21  1  0
 19 24  1  0
 25 20  1  0
 21 26  1  0
 22 27  2  0
 22 28  1  0
 29 25  1  0
 25 30  1  0
 25 31  1  0
 26 32  1  0
 26 33  1  0
 28 34  2  0
 28 35  1  0
 36 29  1  0
 29 37  1  0
 29 38  1  0
 32 39  2  0
 40 32  1  0
 34 41  1  0
 34 42  1  0
 39 43  1  0
 44 40  2  0
 43 45  2  0
 43 46  1  0
 45 44  1  0
 44 47  1  0
 45 48  1  0
 47 49  2  0
 50 47  1  0
 49 51  1  0
 49 52  1  0
 53 50  2  0
 50 54  1  0
 51 55  1  0
 51 54  1  0
 56 53  1  0
 53 57  1  0
 54 58  2  0
 55 59  1  0
 55 60  1  0
 55 61  1  0
 62 56  2  0
 56 63  1  0
 58 62  1  0
 58 64  1  0
 62 65  1  0
  3 66  1  0
  3 67  1  0
  3 68  1  0
  1 69  1  0
M  END
>  <SMILES>  (2) 
C=CC(=O)Nc1cc(Nc2nccc(-c3cn(C)c4ccccc34)n2)c(OCC(F)(F)F)nc1N(C)CCNC

>  <Molecular Weight>  (2) 
554.6

>  <Substrate_ID>  (2) 
MOL0062

>  <Substrate>  (2) 


>  <Substrate_SMILES>  (2) 
C=CC(=O)Nc1cc(Nc2nccc(-c3cn(C)c4ccccc34)n2)c(OCC(F)(F)F)nc1N(C)CCN(C)C

>  <Reaction>  (2) 
N-demethylation_(tertiary_amine)

>  <Score>  (2) 
0.8084

>  <Reaction_Score>  (2) 
0.7915

>  <Bond_Score>  (2) 
0.8256

>  <Rank>  (2) 
2

>  <Subtype>  (2) 
REACTION

>  <Subtype_Scores>  (2) 
[REACTION] SOM_score: 0.8256, Reaction_score: 0.7915, Score: 0.8084


$$$$

     RDKit          2D

 69 72  0  0  0  0  0  0  0  0999 V2000
    1.2760    0.0000    0.0000 N   0  0  0  0  0  0  0  0  0 13  0  0
    0.3943    1.2135    0.0000 C   0  0  0  0  0  0  0  0  0 27  0  0
    0.3943   -1.2135    0.0000 C   0  0  0  0  0  0  0  0  0 40  0  0
   -1.0323    0.7500    0.0000 C   0  0  0  0  0  0  0  0  0 38  0  0
    0.8578    2.6401    0.0000 H   0  0  0  0  0  0  0  0  0  0  0  0
    0.7062   -2.6807    0.0000 C   0  0  0  0  0  0  0  0  0 26  0  0
   -1.0323   -0.7500    0.0000 C   0  0  0  0  0  0  0  0  0 39  0  0
   -2.2458    1.6317    0.0000 C   0  0  0  0  0  0  0  0  0 32  0  0
   -0.4086   -3.6844    0.0000 C   0  0  0  0  0  0  0  0  0 21  0  0
    2.1328   -3.1443    0.0000 H   0  0  0  0  0  0  0  0  0  0  0  0
   -2.1470   -1.7537    0.0000 C   0  0  0  0  0  0  0  0  0 25  0  0
   -2.0890    3.1235    0.0000 C   0  0  0  0  0  0  0  0  0 23  0  0
   -3.6161    1.0216    0.0000 N   0  0  0  0  0  0  0  0  0  7  0  0
   -1.8351   -3.2209    0.0000 C   0  0  0  0  0  0  0  0  0 20  0  0
   -0.0967   -5.1517    0.0000 H   0  0  0  0  0  0  0  0  0  0  0  0
   -3.5736   -1.2902    0.0000 H   0  0  0  0  0  0  0  0  0  0  0  0
   -3.3025    4.0051    0.0000 C   0  0  0  0  0  0  0  0  0 22  0  0
   -0.7187    3.7336    0.0000 H   0  0  0  0  0  0  0  0  0  0  0  0
   -4.8297    1.9033    0.0000 C   0  0  0  0  0  0  0  0  0 33  0  0
   -2.9499   -4.2246    0.0000 H   0  0  0  0  0  0  0  0  0  0  0  0
   -4.6729    3.3950    0.0000 N   0  0  0  0  0  0  0  0  0  6  0  0
   -3.0811    4.9641    0.0000 H   0  0  0  0  0  0  0  0  0  0  0  0
   -6.2000    1.2931    0.0000 N   0  0  0  0  0  0  0  0  0  9  0  0
   -7.4135    2.1748    0.0000 C   0  0  0  0  0  0  0  0  0 34  0  0
   -6.3568   -0.1986    0.0000 H   0  0  0  0  0  0  0  0  0  0  0  0
   -7.2567    3.6666    0.0000 C   0  0  0  0  0  0  0  0  0 24  0  0
   -8.7838    1.5647    0.0000 C   0  0  0  0  0  0  0  0  0 36  0  0
   -8.4702    4.5483    0.0000 C   0  0  0  0  0  0  0  0  0 35  0  0
   -6.3156    3.9543    0.0000 H   0  0  0  0  0  0  0  0  0  0  0  0
   -8.9406    0.0729    0.0000 O   0  0  0  0  0  0  0  0  0  5  0  0
   -9.9973    2.4464    0.0000 N   0  0  0  0  0  0  0  0  0  8  0  0
   -9.8406    3.9382    0.0000 C   0  0  0  0  0  0  0  0  0 37  0  0
   -8.3134    6.0401    0.0000 N   0  0  0  0  0  0  0  0  0 10  0  0
  -10.3109   -0.5372    0.0000 C   0  0  0  0  0  0  0  0  0 30  0  0
  -11.0541    4.8199    0.0000 N   0  0  0  0  0  0  0  0  0 12  0  0
   -6.9431    6.6502    0.0000 C   0  0  0  0  0  0  0  0  0 31  0  0
   -9.0332    6.7113    0.0000 H   0  0  0  0  0  0  0  0  0  0  0  0
  -11.6812   -1.1473    0.0000 C   0  0  0  0  0  0  0  0  0 41  0  0
  -10.9210    0.8331    0.0000 H   0  0  0  0  0  0  0  0  0  0  0  0
   -9.7008   -1.9075    0.0000 H   0  0  0  0  0  0  0  0  0  0  0  0
  -10.8973    6.3116    0.0000 C   0  0  0  0  0  0  0  0  0 17  0  0
  -12.4244    4.2098    0.0000 C   0  0  0  0  0  0  0  0  0 29  0  0
   -6.7863    8.1420    0.0000 O   0  0  0  0  0  0  0  0  0  4  0  0
   -5.7296    5.7685    0.0000 C   0  0  0  0  0  0  0  0  0 19  0  0
  -13.0516   -1.7574    0.0000 F   0  0  0  0  0  0  0  0  0  1  0  0
  -12.2914    0.2230    0.0000 F   0  0  0  0  0  0  0  0  0  2  0  0
  -11.0711   -2.5176    0.0000 F   0  0  0  0  0  0  0  0  0  3  0  0
  -10.7405    7.8034    0.0000 H   0  0  0  0  0  0  0  0  0  0  0  0
  -12.3891    6.4684    0.0000 H   0  0  0  0  0  0  0  0  0  0  0  0
   -9.9133    6.3288    0.0000 H   0  0  0  0  0  0  0  0  0  0  0  0
  -13.7947    3.5996    0.0000 C   0  0  0  0  0  0  0  0  0 28  0  0
  -11.8143    2.8394    0.0000 H   0  0  0  0  0  0  0  0  0  0  0  0
  -13.0345    5.5801    0.0000 H   0  0  0  0  0  0  0  0  0  0  0  0
   -4.3593    6.3786    0.0000 C   0  0  0  0  0  0  0  0  0 14  0  0
   -5.7124    4.7845    0.0000 H   0  0  0  0  0  0  0  0  0  0  0  0
  -15.1650    2.9895    0.0000 N   0  0  0  0  0  0  0  0  0 11  0  0
  -14.4048    4.9700    0.0000 H   0  0  0  0  0  0  0  0  0  0  0  0
  -13.1846    2.2293    0.0000 H   0  0  0  0  0  0  0  0  0  0  0  0
   -3.4985    5.9015    0.0000 H   0  0  0  0  0  0  0  0  0  0  0  0
   -4.2025    7.8704    0.0000 H   0  0  0  0  0  0  0  0  0  0  0  0
  -16.3786    3.8712    0.0000 C   0  0  0  0  0  0  0  0  0 15  0  0
  -15.3218    1.4978    0.0000 C   0  0  0  0  0  0  0  0  0 16  0  0
  -17.5921    4.7529    0.0000 H   0  0  0  0  0  0  0  0  0  0  0  0
  -17.2602    2.6577    0.0000 H   0  0  0  0  0  0  0  0  0  0  0  0
  -15.4969    5.0847    0.0000 H   0  0  0  0  0  0  0  0  0  0  0  0
  -15.4786    0.0060    0.0000 H   0  0  0  0  0  0  0  0  0  0  0  0
  -16.8136    1.6546    0.0000 H   0  0  0  0  0  0  0  0  0  0  0  0
  -13.8300    1.3410    0.0000 H   0  0  0  0  0  0  0  0  0  0  0  0
    2.7760    0.0000    0.0000 H   0  0  0  0  0  0  0  0  0  0  0  0
  2  1  1  0
  1  3  1  0
  4  2  2  0
  2  5  1  0
  3  6  2  0
  7  3  1  0
  8  4  1  0
  7  4  1  0
  6  9  1  0
  6 10  1  0
 11  7  2  0
 12  8  2  0
  8 13  1  0
  9 14  2  0
  9 15  1  0
 14 11  1  0
 11 16  1  0
 17 12  1  0
 12 18  1  0
 13 19  2  0
 14 20  1  0
 21 17  2  0
 17 22  1  0
 23 19  1  0
 19 21  1  0
 24 23  1  0
 23 25  1  0
 26 24  2  0
 24 27  1  0
 28 26  1  0
 26 29  1  0
 30 27  1  0
 27 31  2  0
 32 28  2  0
 28 33  1  0
 34 30  1  0
 31 32  1  0
 32 35  1  0
 33 36  1  0
 33 37  1  0
 38 34  1  0
 34 39  1  0
 34 40  1  0
 35 41  1  0
 35 42  1  0
 36 43  2  0
 36 44  1  0
 45 38  1  0
 38 46  1  0
 38 47  1  0
 41 48  1  0
 41 49  1  0
 41 50  1  0
 42 51  1  0
 42 52  1  0
 42 53  1  0
 44 54  2  0
 44 55  1  0
 51 56  1  0
 51 57  1  0
 51 58  1  0
 54 59  1  0
 54 60  1  0
 56 61  1  0
 56 62  1  0
 61 63  1  0
 61 64  1  0
 61 65  1  0
 62 66  1  0
 62 67  1  0
 62 68  1  0
  1 69  1  0
M  END
>  <SMILES>  (3) 
C=CC(=O)Nc1cc(Nc2nccc(-c3c[nH]c4ccccc34)n2)c(OCC(F)(F)F)nc1N(C)CCN(C)C

>  <Molecular Weight>  (3) 
554.6

>  <Substrate_ID>  (3) 
MOL0062

>  <Substrate>  (3) 


>  <Substrate_SMILES>  (3) 
C=CC(=O)Nc1cc(Nc2nccc(-c3cn(C)c4ccccc34)n2)c(OCC(F)(F)F)nc1N(C)CCN(C)C

>  <Reaction>  (3) 
N-demethylation_(nCH3)

>  <Score>  (3) 
0.3434

>  <Reaction_Score>  (3) 
0.3487

>  <Bond_Score>  (3) 
0.3381

>  <Rank>  (3) 
3

>  <Subtype>  (3) 
REACTION

>  <Subtype_Scores>  (3) 
[REACTION] SOM_score: 0.3381, Reaction_score: 0.3487, Score: 0.3434


$$$$

     RDKit          2D

 73 76  0  0  0  0  0  0  0  0999 V2000
    0.3943    1.2135    0.0000 C   0  0  0  0  0  0  0  0  0 38  0  0
   -1.0323    0.7500    0.0000 C   0  0  0  0  0  0  0  0  0 39  0  0
   -1.0323   -0.7500    0.0000 C   0  0  0  0  0  0  0  0  0 40  0  0
   -2.3313   -1.5000    0.0000 C   0  0  0  0  0  0  0  0  0 26  0  0
   -3.6304   -0.7500    0.0000 C   0  0  0  0  0  0  0  0  0 21  0  0
   -4.9294   -1.5000    0.0000 O   0  0  0  0  0  0  0  0  0 42  0  0
   -3.6304    0.7500    0.0000 C   0  0  0  0  0  0  0  0  0 20  0  0
   -2.3313    1.5000    0.0000 C   0  0  0  0  0  0  0  0  0 25  0  0
    0.8578    2.6401    0.0000 C   0  0  0  0  0  0  0  0  0 32  0  0
    1.2760    0.0000    0.0000 C   0  0  0  0  0  0  0  0  0 27  0  0
    2.3250    2.9520    0.0000 C   0  0  0  0  0  0  0  0  0 23  0  0
   -0.1459    3.7548    0.0000 N   0  0  0  0  0  0  0  0  0  7  0  0
    0.3943   -1.2135    0.0000 N   0  0  0  0  0  0  0  0  0 13  0  0
    2.7760    0.0000    0.0000 H   0  0  0  0  0  0  0  0  0  0  0  0
    2.7886    4.3786    0.0000 C   0  0  0  0  0  0  0  0  0 22  0  0
    3.3287    1.8373    0.0000 H   0  0  0  0  0  0  0  0  0  0  0  0
    0.3177    5.1814    0.0000 C   0  0  0  0  0  0  0  0  0 33  0  0
    0.8578   -2.6401    0.0000 C   0  0  0  0  0  0  0  0  0 18  0  0
    1.7849    5.4933    0.0000 N   0  0  0  0  0  0  0  0  0  6  0  0
    4.2829    4.5093    0.0000 H   0  0  0  0  0  0  0  0  0  0  0  0
   -0.6860    6.2961    0.0000 N   0  0  0  0  0  0  0  0  0  9  0  0
    1.3213   -4.0667    0.0000 H   0  0  0  0  0  0  0  0  0  0  0  0
    2.2844   -2.1766    0.0000 H   0  0  0  0  0  0  0  0  0  0  0  0
   -0.5688   -3.1036    0.0000 H   0  0  0  0  0  0  0  0  0  0  0  0
   -0.2225    7.7227    0.0000 C   0  0  0  0  0  0  0  0  0 34  0  0
   -2.1533    5.9843    0.0000 H   0  0  0  0  0  0  0  0  0  0  0  0
    1.2447    8.0346    0.0000 C   0  0  0  0  0  0  0  0  0 24  0  0
   -1.2262    8.8374    0.0000 C   0  0  0  0  0  0  0  0  0 36  0  0
    1.7082    9.4612    0.0000 C   0  0  0  0  0  0  0  0  0 35  0  0
    2.1050    6.8058    0.0000 H   0  0  0  0  0  0  0  0  0  0  0  0
   -2.6934    8.5256    0.0000 O   0  0  0  0  0  0  0  0  0  5  0  0
   -0.7627   10.2640    0.0000 N   0  0  0  0  0  0  0  0  0  8  0  0
    0.7045   10.5759    0.0000 C   0  0  0  0  0  0  0  0  0 37  0  0
    3.1755    9.7730    0.0000 N   0  0  0  0  0  0  0  0  0 10  0  0
   -3.6971    9.6403    0.0000 C   0  0  0  0  0  0  0  0  0 30  0  0
    1.1681   12.0025    0.0000 N   0  0  0  0  0  0  0  0  0 12  0  0
    4.1791    8.6583    0.0000 C   0  0  0  0  0  0  0  0  0 31  0  0
    3.3275   10.5556    0.0000 H   0  0  0  0  0  0  0  0  0  0  0  0
   -4.7008   10.7550    0.0000 C   0  0  0  0  0  0  0  0  0 41  0  0
   -2.5824   10.6440    0.0000 H   0  0  0  0  0  0  0  0  0  0  0  0
   -4.8118    8.6366    0.0000 H   0  0  0  0  0  0  0  0  0  0  0  0
    2.6353   12.3143    0.0000 C   0  0  0  0  0  0  0  0  0 17  0  0
    0.1644   13.1172    0.0000 C   0  0  0  0  0  0  0  0  0 29  0  0
    5.6464    8.9702    0.0000 O   0  0  0  0  0  0  0  0  0  4  0  0
    3.7156    7.2317    0.0000 C   0  0  0  0  0  0  0  0  0 19  0  0
   -5.7045   11.8697    0.0000 F   0  0  0  0  0  0  0  0  0  1  0  0
   -3.5861   11.7587    0.0000 F   0  0  0  0  0  0  0  0  0  2  0  0
   -5.8155    9.7513    0.0000 F   0  0  0  0  0  0  0  0  0  3  0  0
    4.1025   12.6262    0.0000 H   0  0  0  0  0  0  0  0  0  0  0  0
    2.3234   13.7816    0.0000 H   0  0  0  0  0  0  0  0  0  0  0  0
    2.7125   11.4320    0.0000 H   0  0  0  0  0  0  0  0  0  0  0  0
   -0.8393   14.2319    0.0000 C   0  0  0  0  0  0  0  0  0 28  0  0
    1.2791   14.1209    0.0000 H   0  0  0  0  0  0  0  0  0  0  0  0
   -0.9504   12.1135    0.0000 H   0  0  0  0  0  0  0  0  0  0  0  0
    4.7193    6.1170    0.0000 C   0  0  0  0  0  0  0  0  0 14  0  0
    2.2974    6.7433    0.0000 H   0  0  0  0  0  0  0  0  0  0  0  0
   -1.8430   15.3466    0.0000 N   0  0  0  0  0  0  0  0  0 11  0  0
   -1.9540   13.2282    0.0000 H   0  0  0  0  0  0  0  0  0  0  0  0
    0.2754   15.2356    0.0000 H   0  0  0  0  0  0  0  0  0  0  0  0
    4.4331    4.6446    0.0000 H   0  0  0  0  0  0  0  0  0  0  0  0
    6.1865    6.4289    0.0000 H   0  0  0  0  0  0  0  0  0  0  0  0
   -3.3102   15.0348    0.0000 C   0  0  0  0  0  0  0  0  0 15  0  0
   -1.3795   16.7732    0.0000 C   0  0  0  0  0  0  0  0  0 16  0  0
   -4.7775   14.7229    0.0000 H   0  0  0  0  0  0  0  0  0  0  0  0
   -3.6221   16.5020    0.0000 H   0  0  0  0  0  0  0  0  0  0  0  0
   -2.9984   13.5675    0.0000 H   0  0  0  0  0  0  0  0  0  0  0  0
   -0.9160   18.1998    0.0000 H   0  0  0  0  0  0  0  0  0  0  0  0
   -2.8061   17.2367    0.0000 H   0  0  0  0  0  0  0  0  0  0  0  0
    0.0471   16.3097    0.0000 H   0  0  0  0  0  0  0  0  0  0  0  0
   -2.3313   -3.0000    0.0000 H   0  0  0  0  0  0  0  0  0  0  0  0
   -4.9294    1.5000    0.0000 H   0  0  0  0  0  0  0  0  0  0  0  0
   -2.3313    3.0000    0.0000 H   0  0  0  0  0  0  0  0  0  0  0  0
   -6.2284   -0.7500    0.0000 H   0  0  0  0  0  0  0  0  0  0  0  0
  1  2  1  0
  2  3  1  0
  3  4  2  0
  4  5  1  0
  5  6  1  0
  5  7  2  0
  7  8  1  0
  8  2  2  0
  9  1  1  0
  1 10  2  0
 11  9  2  0
  9 12  1  0
 10 13  1  0
 10 14  1  0
 15 11  1  0
 11 16  1  0
 12 17  2  0
 13 18  1  0
 13  3  1  0
 19 15  2  0
 15 20  1  0
 21 17  1  0
 17 19  1  0
 18 22  1  0
 18 23  1  0
 18 24  1  0
 25 21  1  0
 21 26  1  0
 27 25  2  0
 25 28  1  0
 29 27  1  0
 27 30  1  0
 31 28  1  0
 28 32  2  0
 33 29  2  0
 29 34  1  0
 35 31  1  0
 32 33  1  0
 33 36  1  0
 34 37  1  0
 34 38  1  0
 39 35  1  0
 35 40  1  0
 35 41  1  0
 36 42  1  0
 36 43  1  0
 37 44  2  0
 37 45  1  0
 46 39  1  0
 39 47  1  0
 39 48  1  0
 42 49  1  0
 42 50  1  0
 42 51  1  0
 43 52  1  0
 43 53  1  0
 43 54  1  0
 45 55  2  0
 45 56  1  0
 52 57  1  0
 52 58  1  0
 52 59  1  0
 55 60  1  0
 55 61  1  0
 57 62  1  0
 57 63  1  0
 62 64  1  0
 62 65  1  0
 62 66  1  0
 63 67  1  0
 63 68  1  0
 63 69  1  0
  4 70  1  0
  7 71  1  0
  8 72  1  0
  6 73  1  0
M  END
>  <SMILES>  (4) 
C=CC(=O)Nc1cc(Nc2nccc(-c3cn(C)c4cc(O)ccc34)n2)c(OCC(F)(F)F)nc1N(C)CCN(C)C

>  <Molecular Weight>  (4) 
584.6

>  <Substrate_ID>  (4) 
MOL0062

>  <Substrate>  (4) 


>  <Substrate_SMILES>  (4) 
C=CC(=O)Nc1cc(Nc2nccc(-c3cn(C)c4ccccc34)n2)c(OCC(F)(F)F)nc1N(C)CCN(C)C

>  <Reaction>  (4) 
aromatic_hydroxylation_(para_to_carbon),aromatic hydroxylation

>  <Score>  (4) 
0.195

>  <Reaction_Score>  (4) 
0.2026

>  <Bond_Score>  (4) 
0.1876

>  <Rank>  (4) 
4

>  <Subtype>  (4) 
REACTION

>  <Subtype_Scores>  (4) 
[REACTION] SOM_score: 0.1876, Reaction_score: 0.2026, Score: 0.1950


$$$$

     RDKit          2D

 73 76  0  0  0  0  0  0  0  0999 V2000
    1.2760    0.0000    0.0000 N   0  0  0  0  0  0  0  0  0 13  0  0
    0.3943    1.2135    0.0000 C   0  0  0  0  0  0  0  0  0 40  0  0
   -1.0323    0.7500    0.0000 C   0  0  0  0  0  0  0  0  0 39  0  0
   -2.1470    1.7537    0.0000 C   0  0  0  0  0  0  0  0  0 25  0  0
   -1.8351    3.2209    0.0000 C   0  0  0  0  0  0  0  0  0 20  0  0
   -2.9499    4.2246    0.0000 O   0  0  0  0  0  0  0  0  0 42  0  0
   -0.4086    3.6844    0.0000 C   0  0  0  0  0  0  0  0  0 21  0  0
    0.7062    2.6807    0.0000 C   0  0  0  0  0  0  0  0  0 26  0  0
    0.3943   -1.2135    0.0000 C   0  0  0  0  0  0  0  0  0 27  0  0
    2.7760    0.0000    0.0000 C   0  0  0  0  0  0  0  0  0 18  0  0
   -1.0323   -0.7500    0.0000 C   0  0  0  0  0  0  0  0  0 38  0  0
    0.8578   -2.6401    0.0000 H   0  0  0  0  0  0  0  0  0  0  0  0
    4.2760    0.0000    0.0000 H   0  0  0  0  0  0  0  0  0  0  0  0
    2.7760   -1.5000    0.0000 H   0  0  0  0  0  0  0  0  0  0  0  0
    2.7760    1.5000    0.0000 H   0  0  0  0  0  0  0  0  0  0  0  0
   -2.2458   -1.6317    0.0000 C   0  0  0  0  0  0  0  0  0 32  0  0
   -3.6161   -1.0216    0.0000 C   0  0  0  0  0  0  0  0  0 23  0  0
   -2.0890   -3.1235    0.0000 N   0  0  0  0  0  0  0  0  0  7  0  0
   -4.8297   -1.9033    0.0000 C   0  0  0  0  0  0  0  0  0 22  0  0
   -3.9536    0.4400    0.0000 H   0  0  0  0  0  0  0  0  0  0  0  0
   -3.3025   -4.0051    0.0000 C   0  0  0  0  0  0  0  0  0 33  0  0
   -4.6729   -3.3950    0.0000 N   0  0  0  0  0  0  0  0  0  6  0  0
   -5.6732   -1.3964    0.0000 H   0  0  0  0  0  0  0  0  0  0  0  0
   -3.1458   -5.4969    0.0000 N   0  0  0  0  0  0  0  0  0  9  0  0
   -4.3593   -6.3786    0.0000 C   0  0  0  0  0  0  0  0  0 34  0  0
   -1.7754   -6.1070    0.0000 H   0  0  0  0  0  0  0  0  0  0  0  0
   -5.7296   -5.7685    0.0000 C   0  0  0  0  0  0  0  0  0 24  0  0
   -4.2025   -7.8704    0.0000 C   0  0  0  0  0  0  0  0  0 36  0  0
   -6.9431   -6.6502    0.0000 C   0  0  0  0  0  0  0  0  0 35  0  0
   -5.7124   -4.7845    0.0000 H   0  0  0  0  0  0  0  0  0  0  0  0
   -2.8322   -8.4805    0.0000 O   0  0  0  0  0  0  0  0  0  5  0  0
   -5.4160   -8.7521    0.0000 N   0  0  0  0  0  0  0  0  0  8  0  0
   -6.7863   -8.1420    0.0000 C   0  0  0  0  0  0  0  0  0 37  0  0
   -8.3134   -6.0401    0.0000 N   0  0  0  0  0  0  0  0  0 10  0  0
   -2.6754   -9.9723    0.0000 C   0  0  0  0  0  0  0  0  0 30  0  0
   -7.9999   -9.0236    0.0000 N   0  0  0  0  0  0  0  0  0 12  0  0
   -8.4702   -4.5483    0.0000 C   0  0  0  0  0  0  0  0  0 31  0  0
   -9.1742   -6.5172    0.0000 H   0  0  0  0  0  0  0  0  0  0  0  0
   -2.5186  -11.4641    0.0000 C   0  0  0  0  0  0  0  0  0 41  0  0
   -4.1672  -10.1291    0.0000 H   0  0  0  0  0  0  0  0  0  0  0  0
   -1.1836   -9.8155    0.0000 H   0  0  0  0  0  0  0  0  0  0  0  0
   -9.3702   -8.4135    0.0000 C   0  0  0  0  0  0  0  0  0 17  0  0
   -7.8431  -10.5154    0.0000 C   0  0  0  0  0  0  0  0  0 29  0  0
   -9.8406   -3.9382    0.0000 O   0  0  0  0  0  0  0  0  0  4  0  0
   -7.2567   -3.6666    0.0000 C   0  0  0  0  0  0  0  0  0 19  0  0
   -2.3618  -12.9558    0.0000 F   0  0  0  0  0  0  0  0  0  1  0  0
   -4.0104  -11.6208    0.0000 F   0  0  0  0  0  0  0  0  0  2  0  0
   -1.0268  -11.3073    0.0000 F   0  0  0  0  0  0  0  0  0  3  0  0
  -10.7405   -7.8034    0.0000 H   0  0  0  0  0  0  0  0  0  0  0  0
   -9.9803   -9.7838    0.0000 H   0  0  0  0  0  0  0  0  0  0  0  0
   -9.0825   -7.4724    0.0000 H   0  0  0  0  0  0  0  0  0  0  0  0
   -7.6863  -12.0072    0.0000 C   0  0  0  0  0  0  0  0  0 28  0  0
   -6.3513  -10.3586    0.0000 H   0  0  0  0  0  0  0  0  0  0  0  0
   -9.3348  -10.6722    0.0000 H   0  0  0  0  0  0  0  0  0  0  0  0
   -7.4135   -2.1748    0.0000 C   0  0  0  0  0  0  0  0  0 14  0  0
   -6.3156   -3.9543    0.0000 H   0  0  0  0  0  0  0  0  0  0  0  0
   -7.5295  -13.4990    0.0000 N   0  0  0  0  0  0  0  0  0 11  0  0
   -9.1781  -12.1640    0.0000 H   0  0  0  0  0  0  0  0  0  0  0  0
   -6.1945  -11.8504    0.0000 H   0  0  0  0  0  0  0  0  0  0  0  0
   -6.6938   -1.5036    0.0000 H   0  0  0  0  0  0  0  0  0  0  0  0
   -8.7838   -1.5647    0.0000 H   0  0  0  0  0  0  0  0  0  0  0  0
   -8.7430  -14.3807    0.0000 C   0  0  0  0  0  0  0  0  0 15  0  0
   -6.1592  -14.1091    0.0000 C   0  0  0  0  0  0  0  0  0 16  0  0
   -9.9565  -15.2623    0.0000 H   0  0  0  0  0  0  0  0  0  0  0  0
   -7.8613  -15.5942    0.0000 H   0  0  0  0  0  0  0  0  0  0  0  0
   -9.6247  -13.1671    0.0000 H   0  0  0  0  0  0  0  0  0  0  0  0
   -4.7888  -14.7192    0.0000 H   0  0  0  0  0  0  0  0  0  0  0  0
   -6.7693  -15.4794    0.0000 H   0  0  0  0  0  0  0  0  0  0  0  0
   -5.5491  -12.7388    0.0000 H   0  0  0  0  0  0  0  0  0  0  0  0
   -3.6195    1.4675    0.0000 H   0  0  0  0  0  0  0  0  0  0  0  0
   -0.0967    5.1517    0.0000 H   0  0  0  0  0  0  0  0  0  0  0  0
    2.1328    3.1443    0.0000 H   0  0  0  0  0  0  0  0  0  0  0  0
   -2.6380    5.6918    0.0000 H   0  0  0  0  0  0  0  0  0  0  0  0
  1  2  1  0
  2  3  2  0
  3  4  1  0
  4  5  2  0
  5  6  1  0
  5  7  1  0
  7  8  2  0
  8  2  1  0
  9  1  1  0
  1 10  1  0
 11  9  2  0
  9 12  1  0
 10 13  1  0
 10 14  1  0
 10 15  1  0
 16 11  1  0
  3 11  1  0
 17 16  2  0
 16 18  1  0
 19 17  1  0
 17 20  1  0
 18 21  2  0
 22 19  2  0
 19 23  1  0
 24 21  1  0
 21 22  1  0
 25 24  1  0
 24 26  1  0
 27 25  2  0
 25 28  1  0
 29 27  1  0
 27 30  1  0
 31 28  1  0
 28 32  2  0
 33 29  2  0
 29 34  1  0
 35 31  1  0
 32 33  1  0
 33 36  1  0
 34 37  1  0
 34 38  1  0
 39 35  1  0
 35 40  1  0
 35 41  1  0
 36 42  1  0
 36 43  1  0
 37 44  2  0
 37 45  1  0
 46 39  1  0
 39 47  1  0
 39 48  1  0
 42 49  1  0
 42 50  1  0
 42 51  1  0
 43 52  1  0
 43 53  1  0
 43 54  1  0
 45 55  2  0
 45 56  1  0
 52 57  1  0
 52 58  1  0
 52 59  1  0
 55 60  1  0
 55 61  1  0
 57 62  1  0
 57 63  1  0
 62 64  1  0
 62 65  1  0
 62 66  1  0
 63 67  1  0
 63 68  1  0
 63 69  1  0
  4 70  1  0
  7 71  1  0
  8 72  1  0
  6 73  1  0
M  END
>  <SMILES>  (5) 
C=CC(=O)Nc1cc(Nc2nccc(-c3cn(C)c4ccc(O)cc34)n2)c(OCC(F)(F)F)nc1N(C)CCN(C)C

>  <Molecular Weight>  (5) 
584.6

>  <Substrate_ID>  (5) 
MOL0062

>  <Substrate>  (5) 


>  <Substrate_SMILES>  (5) 
C=CC(=O)Nc1cc(Nc2nccc(-c3cn(C)c4ccccc34)n2)c(OCC(F)(F)F)nc1N(C)CCN(C)C

>  <Reaction>  (5) 
aromatic_hydroxylation_(para_to_nitrogen),aromatic hydroxylation

>  <Score>  (5) 
0.1714

>  <Reaction_Score>  (5) 
0.1776

>  <Bond_Score>  (5) 
0.1654

>  <Rank>  (5) 
5

>  <Subtype>  (5) 
REACTION

>  <Subtype_Scores>  (5) 
[REACTION] SOM_score: 0.1654, Reaction_score: 0.1776, Score: 0.1714


$$$$

     RDKit          2D

 58 61  0  0  0  0  0  0  0  0999 V2000
    8.2706    0.2316    0.0000 N   0  0  0  0  0  0  0  0  0 12  0  0
    7.2669    1.3463    0.0000 C   0  0  0  0  0  0  0  0  0 37  0  0
    7.8071   -1.1950    0.0000 C   0  0  0  0  0  0  0  0  0 17  0  0
    5.7997    1.0344    0.0000 N   0  0  0  0  0  0  0  0  0  8  0  0
    7.7304    2.7729    0.0000 C   0  0  0  0  0  0  0  0  0 35  0  0
    7.3435   -2.6216    0.0000 H   0  0  0  0  0  0  0  0  0  0  0  0
    9.2336   -1.6585    0.0000 H   0  0  0  0  0  0  0  0  0  0  0  0
    6.3805   -0.7315    0.0000 H   0  0  0  0  0  0  0  0  0  0  0  0
    4.7960    2.1491    0.0000 C   0  0  0  0  0  0  0  0  0 36  0  0
    9.1976    3.0847    0.0000 N   0  0  0  0  0  0  0  0  0 10  0  0
    6.7267    3.8876    0.0000 C   0  0  0  0  0  0  0  0  0 24  0  0
    3.3287    1.8373    0.0000 O   0  0  0  0  0  0  0  0  0  5  0  0
    5.2595    3.5757    0.0000 C   0  0  0  0  0  0  0  0  0 34  0  0
    9.6612    4.5113    0.0000 C   0  0  0  0  0  0  0  0  0 31  0  0
   10.2013    1.9700    0.0000 H   0  0  0  0  0  0  0  0  0  0  0  0
    7.1902    5.3142    0.0000 H   0  0  0  0  0  0  0  0  0  0  0  0
    2.8652    0.4107    0.0000 C   0  0  0  0  0  0  0  0  0 30  0  0
    4.2558    4.6904    0.0000 N   0  0  0  0  0  0  0  0  0  9  0  0
    8.6575    5.6260    0.0000 O   0  0  0  0  0  0  0  0  0  4  0  0
   11.1284    4.8232    0.0000 C   0  0  0  0  0  0  0  0  0 19  0  0
    2.4017   -1.0159    0.0000 C   0  0  0  0  0  0  0  0  0 41  0  0
    4.2918   -0.0528    0.0000 H   0  0  0  0  0  0  0  0  0  0  0  0
    1.4386    0.8742    0.0000 H   0  0  0  0  0  0  0  0  0  0  0  0
    2.7886    4.3786    0.0000 C   0  0  0  0  0  0  0  0  0 33  0  0
    4.7193    6.1170    0.0000 H   0  0  0  0  0  0  0  0  0  0  0  0
   11.5919    6.2498    0.0000 C   0  0  0  0  0  0  0  0  0 14  0  0
   12.1321    3.7085    0.0000 H   0  0  0  0  0  0  0  0  0  0  0  0
    1.9382   -2.4425    0.0000 F   0  0  0  0  0  0  0  0  0  1  0  0
    3.8283   -1.4794    0.0000 F   0  0  0  0  0  0  0  0  0  2  0  0
    0.9751   -0.5524    0.0000 F   0  0  0  0  0  0  0  0  0  3  0  0
    2.3250    2.9520    0.0000 N   0  0  0  0  0  0  0  0  0  6  0  0
    1.7849    5.4933    0.0000 N   0  0  0  0  0  0  0  0  0  7  0  0
   13.0591    6.5616    0.0000 H   0  0  0  0  0  0  0  0  0  0  0  0
   10.5882    7.3645    0.0000 H   0  0  0  0  0  0  0  0  0  0  0  0
    0.8578    2.6401    0.0000 C   0  0  0  0  0  0  0  0  0 22  0  0
    0.3177    5.1814    0.0000 C   0  0  0  0  0  0  0  0  0 32  0  0
   -0.1459    3.7548    0.0000 C   0  0  0  0  0  0  0  0  0 23  0  0
    0.3943    1.2135    0.0000 H   0  0  0  0  0  0  0  0  0  0  0  0
   -0.6860    6.2961    0.0000 C   0  0  0  0  0  0  0  0  0 38  0  0
   -1.6131    3.4430    0.0000 H   0  0  0  0  0  0  0  0  0  0  0  0
   -2.1778    6.1393    0.0000 C   0  0  0  0  0  0  0  0  0 27  0  0
   -0.3742    7.7634    0.0000 C   0  0  0  0  0  0  0  0  0 39  0  0
   -2.7879    7.5097    0.0000 N   0  0  0  0  0  0  0  0  0 13  0  0
   -2.9278    4.8403    0.0000 H   0  0  0  0  0  0  0  0  0  0  0  0
    0.9249    8.5134    0.0000 C   0  0  0  0  0  0  0  0  0 25  0  0
   -1.6732    8.5134    0.0000 C   0  0  0  0  0  0  0  0  0 40  0  0
   -4.2552    7.8215    0.0000 C   0  0  0  0  0  0  0  0  0 18  0  0
    0.9249   10.0134    0.0000 C   0  0  0  0  0  0  0  0  0 20  0  0
    2.2239    7.7634    0.0000 H   0  0  0  0  0  0  0  0  0  0  0  0
   -1.6732   10.0134    0.0000 C   0  0  0  0  0  0  0  0  0 26  0  0
   -5.7224    8.1334    0.0000 H   0  0  0  0  0  0  0  0  0  0  0  0
   -4.5670    6.3543    0.0000 H   0  0  0  0  0  0  0  0  0  0  0  0
   -3.9433    9.2887    0.0000 H   0  0  0  0  0  0  0  0  0  0  0  0
   -0.3742   10.7634    0.0000 C   0  0  0  0  0  0  0  0  0 21  0  0
    2.2239   10.7634    0.0000 H   0  0  0  0  0  0  0  0  0  0  0  0
   -2.9723   10.7634    0.0000 H   0  0  0  0  0  0  0  0  0  0  0  0
   -0.3742   12.2634    0.0000 H   0  0  0  0  0  0  0  0  0  0  0  0
    9.7378    0.5434    0.0000 H   0  0  0  0  0  0  0  0  0  0  0  0
  2  1  1  0
  1  3  1  0
  4  2  2  0
  2  5  1  0
  3  6  1  0
  3  7  1  0
  3  8  1  0
  9  4  1  0
  5 10  1  0
  5 11  2  0
 12  9  1  0
 13  9  2  0
 10 14  1  0
 10 15  1  0
 11 13  1  0
 11 16  1  0
 17 12  1  0
 13 18  1  0
 14 19  2  0
 14 20  1  0
 21 17  1  0
 17 22  1  0
 17 23  1  0
 18 24  1  0
 18 25  1  0
 20 26  2  0
 20 27  1  0
 28 21  1  0
 21 29  1  0
 21 30  1  0
 24 31  2  0
 32 24  1  0
 26 33  1  0
 26 34  1  0
 31 35  1  0
 36 32  2  0
 35 37  2  0
 35 38  1  0
 37 36  1  0
 36 39  1  0
 37 40  1  0
 39 41  2  0
 42 39  1  0
 41 43  1  0
 41 44  1  0
 45 42  2  0
 42 46  1  0
 43 47  1  0
 43 46  1  0
 48 45  1  0
 45 49  1  0
 46 50  2  0
 47 51  1  0
 47 52  1  0
 47 53  1  0
 54 48  2  0
 48 55  1  0
 50 54  1  0
 50 56  1  0
 54 57  1  0
  1 58  1  0
M  END
>  <SMILES>  (6) 
C=CC(=O)Nc1cc(Nc2nccc(-c3cn(C)c4ccccc34)n2)c(OCC(F)(F)F)nc1NC

>  <Molecular Weight>  (6) 
497.5

>  <Substrate_ID>  (6) 
MOL0062

>  <Substrate>  (6) 


>  <Substrate_SMILES>  (6) 
C=CC(=O)Nc1cc(Nc2nccc(-c3cn(C)c4ccccc34)n2)c(OCC(F)(F)F)nc1N(C)CCN(C)C

>  <Reaction>  (6) 
N-dealkylation_(tertiaryN-CH2-alkyl)

>  <Score>  (6) 
0.1661

>  <Reaction_Score>  (6) 
0.1558

>  <Bond_Score>  (6) 
0.1772

>  <Rank>  (6) 
6

>  <Subtype>  (6) 
REACTION

>  <Subtype_Scores>  (6) 
[REACTION] SOM_score: 0.1772, Reaction_score: 0.1558, Score: 0.1661


$$$$

     RDKit          2D

 66 69  0  0  0  0  0  0  0  0999 V2000
    6.7267    3.8876    0.0000 C   0  0  0  0  0  0  0  0  0 36  0  0
    7.1902    5.3142    0.0000 O   0  0  0  0  0  0  0  0  0  5  0  0
    7.7304    2.7729    0.0000 N   0  0  0  0  0  0  0  0  0  8  0  0
    5.2595    3.5757    0.0000 C   0  0  0  0  0  0  0  0  0 34  0  0
    7.2669    1.3463    0.0000 C   0  0  0  0  0  0  0  0  0 37  0  0
    4.7960    2.1491    0.0000 C   0  0  0  0  0  0  0  0  0 24  0  0
    4.2558    4.6904    0.0000 N   0  0  0  0  0  0  0  0  0  9  0  0
    8.2706    0.2316    0.0000 N   0  0  0  0  0  0  0  0  0 12  0  0
    5.7997    1.0344    0.0000 C   0  0  0  0  0  0  0  0  0 35  0  0
    3.3287    1.8373    0.0000 H   0  0  0  0  0  0  0  0  0  0  0  0
    2.7886    4.3786    0.0000 C   0  0  0  0  0  0  0  0  0 33  0  0
    4.7193    6.1170    0.0000 H   0  0  0  0  0  0  0  0  0  0  0  0
    7.8071   -1.1950    0.0000 C   0  0  0  0  0  0  0  0  0 17  0  0
    9.7378    0.5434    0.0000 C   0  0  0  0  0  0  0  0  0 29  0  0
    5.3361   -0.3922    0.0000 N   0  0  0  0  0  0  0  0  0 10  0  0
    1.7849    5.4933    0.0000 N   0  0  0  0  0  0  0  0  0  6  0  0
    2.3250    2.9520    0.0000 N   0  0  0  0  0  0  0  0  0  7  0  0
    7.3435   -2.6216    0.0000 H   0  0  0  0  0  0  0  0  0  0  0  0
    9.2336   -1.6585    0.0000 H   0  0  0  0  0  0  0  0  0  0  0  0
    7.0118   -1.1395    0.0000 H   0  0  0  0  0  0  0  0  0  0  0  0
   11.2050    0.8553    0.0000 C   0  0  0  0  0  0  0  0  0 28  0  0
    9.4259    2.0107    0.0000 H   0  0  0  0  0  0  0  0  0  0  0  0
   10.0497   -0.9238    0.0000 H   0  0  0  0  0  0  0  0  0  0  0  0
    6.3398   -1.5069    0.0000 C   0  0  0  0  0  0  0  0  0 31  0  0
    3.8689   -0.7040    0.0000 H   0  0  0  0  0  0  0  0  0  0  0  0
    0.3177    5.1814    0.0000 C   0  0  0  0  0  0  0  0  0 22  0  0
    0.8578    2.6401    0.0000 C   0  0  0  0  0  0  0  0  0 32  0  0
   12.6722    1.1672    0.0000 N   0  0  0  0  0  0  0  0  0 11  0  0
   10.8932    2.3225    0.0000 H   0  0  0  0  0  0  0  0  0  0  0  0
   11.5169   -0.6119    0.0000 H   0  0  0  0  0  0  0  0  0  0  0  0
    7.8389   -1.5593    0.0000 O   0  0  0  0  0  0  0  0  0  4  0  0
    5.8763   -2.9335    0.0000 C   0  0  0  0  0  0  0  0  0 19  0  0
   -0.1459    3.7548    0.0000 C   0  0  0  0  0  0  0  0  0 23  0  0
   -0.6860    6.2961    0.0000 H   0  0  0  0  0  0  0  0  0  0  0  0
    0.3943    1.2135    0.0000 C   0  0  0  0  0  0  0  0  0 38  0  0
   13.6759    0.0524    0.0000 C   0  0  0  0  0  0  0  0  0 15  0  0
   13.1358    2.5937    0.0000 C   0  0  0  0  0  0  0  0  0 16  0  0
    6.8800   -4.0482    0.0000 C   0  0  0  0  0  0  0  0  0 14  0  0
    4.4091   -3.2453    0.0000 H   0  0  0  0  0  0  0  0  0  0  0  0
   -1.6402    3.6241    0.0000 H   0  0  0  0  0  0  0  0  0  0  0  0
    1.2760    0.0000    0.0000 C   0  0  0  0  0  0  0  0  0 27  0  0
   -1.0323    0.7500    0.0000 C   0  0  0  0  0  0  0  0  0 39  0  0
   14.6796   -1.0623    0.0000 H   0  0  0  0  0  0  0  0  0  0  0  0
   14.7907    1.0561    0.0000 H   0  0  0  0  0  0  0  0  0  0  0  0
   12.5612   -0.9512    0.0000 H   0  0  0  0  0  0  0  0  0  0  0  0
   13.5993    4.0203    0.0000 H   0  0  0  0  0  0  0  0  0  0  0  0
   14.5624    2.1302    0.0000 H   0  0  0  0  0  0  0  0  0  0  0  0
   11.7092    3.0573    0.0000 H   0  0  0  0  0  0  0  0  0  0  0  0
    6.4165   -5.4748    0.0000 H   0  0  0  0  0  0  0  0  0  0  0  0
    8.3472   -3.7363    0.0000 H   0  0  0  0  0  0  0  0  0  0  0  0
    0.3943   -1.2135    0.0000 N   0  0  0  0  0  0  0  0  0 13  0  0
    2.7760    0.0000    0.0000 H   0  0  0  0  0  0  0  0  0  0  0  0
   -2.3313    1.5000    0.0000 C   0  0  0  0  0  0  0  0  0 25  0  0
   -1.0323   -0.7500    0.0000 C   0  0  0  0  0  0  0  0  0 40  0  0
    0.8578   -2.6401    0.0000 C   0  0  0  0  0  0  0  0  0 18  0  0
   -3.6304    0.7500    0.0000 C   0  0  0  0  0  0  0  0  0 20  0  0
   -2.5142    2.9888    0.0000 H   0  0  0  0  0  0  0  0  0  0  0  0
   -2.3313   -1.5000    0.0000 C   0  0  0  0  0  0  0  0  0 26  0  0
    1.3213   -4.0667    0.0000 H   0  0  0  0  0  0  0  0  0  0  0  0
    2.2844   -2.1766    0.0000 H   0  0  0  0  0  0  0  0  0  0  0  0
   -0.5688   -3.1036    0.0000 H   0  0  0  0  0  0  0  0  0  0  0  0
   -3.6304   -0.7500    0.0000 C   0  0  0  0  0  0  0  0  0 21  0  0
   -4.9294    1.5000    0.0000 H   0  0  0  0  0  0  0  0  0  0  0  0
   -2.3313   -3.0000    0.0000 H   0  0  0  0  0  0  0  0  0  0  0  0
   -4.9294   -1.5000    0.0000 H   0  0  0  0  0  0  0  0  0  0  0  0
    8.6575    5.6260    0.0000 H   0  0  0  0  0  0  0  0  0  0  0  0
  1  2  1  0
  1  3  2  0
  4  1  1  0
  3  5  1  0
  6  4  2  0
  4  7  1  0
  5  8  1  0
  5  9  2  0
  9  6  1  0
  6 10  1  0
  7 11  1  0
  7 12  1  0
  8 13  1  0
  8 14  1  0
  9 15  1  0
 11 16  2  0
 17 11  1  0
 13 18  1  0
 13 19  1  0
 13 20  1  0
 14 21  1  0
 14 22  1  0
 14 23  1  0
 15 24  1  0
 15 25  1  0
 16 26  1  0
 27 17  2  0
 21 28  1  0
 21 29  1  0
 21 30  1  0
 24 31  2  0
 24 32  1  0
 26 33  2  0
 26 34  1  0
 33 27  1  0
 27 35  1  0
 28 36  1  0
 28 37  1  0
 32 38  2  0
 32 39  1  0
 33 40  1  0
 35 41  2  0
 42 35  1  0
 36 43  1  0
 36 44  1  0
 36 45  1  0
 37 46  1  0
 37 47  1  0
 37 48  1  0
 38 49  1  0
 38 50  1  0
 41 51  1  0
 41 52  1  0
 53 42  2  0
 42 54  1  0
 51 55  1  0
 51 54  1  0
 56 53  1  0
 53 57  1  0
 54 58  2  0
 55 59  1  0
 55 60  1  0
 55 61  1  0
 62 56  2  0
 56 63  1  0
 58 62  1  0
 58 64  1  0
 62 65  1  0
  2 66  1  0
M  END
>  <SMILES>  (7) 
C=CC(=O)Nc1cc(Nc2nccc(-c3cn(C)c4ccccc34)n2)c(O)nc1N(C)CCN(C)C

>  <Molecular Weight>  (7) 
486.6

>  <Substrate_ID>  (7) 
MOL0062

>  <Substrate>  (7) 


>  <Substrate_SMILES>  (7) 
C=CC(=O)Nc1cc(Nc2nccc(-c3cn(C)c4ccccc34)n2)c(OCC(F)(F)F)nc1N(C)CCN(C)C

>  <Reaction>  (7) 
O-dealkylation_(aromatic)

>  <Score>  (7) 
0.1462

>  <Reaction_Score>  (7) 
0.1267

>  <Bond_Score>  (7) 
0.1688

>  <Rank>  (7) 
7

>  <Subtype>  (7) 
REACTION

>  <Subtype_Scores>  (7) 
[REACTION] SOM_score: 0.1688, Reaction_score: 0.1267, Score: 0.1462


$$$$

     RDKit          2D

 73 77  0  0  0  0  0  0  0  0999 V2000
    5.8763   -2.9335    0.0000 C   0  0  0  0  0  0  0  0  0 19  0  0
    5.9287   -4.4326    0.0000 C   0  0  0  0  0  0  0  0  0 14  0  0
    7.2007   -3.6377    0.0000 O   0  0  0  0  0  0  0  0  0 42  0  0
    6.3398   -1.5069    0.0000 C   0  0  0  0  0  0  0  0  0 31  0  0
    4.3909   -2.7247    0.0000 H   0  0  0  0  0  0  0  0  0  0  0  0
    5.3361   -0.3922    0.0000 N   0  0  0  0  0  0  0  0  0 10  0  0
    7.1365   -1.5348    0.0000 O   0  0  0  0  0  0  0  0  0  4  0  0
    5.7997    1.0344    0.0000 C   0  0  0  0  0  0  0  0  0 35  0  0
    3.8689   -0.7040    0.0000 H   0  0  0  0  0  0  0  0  0  0  0  0
    7.2669    1.3463    0.0000 C   0  0  0  0  0  0  0  0  0 37  0  0
    4.7960    2.1491    0.0000 C   0  0  0  0  0  0  0  0  0 24  0  0
    7.7304    2.7729    0.0000 N   0  0  0  0  0  0  0  0  0  8  0  0
    8.2706    0.2316    0.0000 N   0  0  0  0  0  0  0  0  0 12  0  0
    5.2595    3.5757    0.0000 C   0  0  0  0  0  0  0  0  0 34  0  0
    3.3287    1.8373    0.0000 H   0  0  0  0  0  0  0  0  0  0  0  0
    6.7267    3.8876    0.0000 C   0  0  0  0  0  0  0  0  0 36  0  0
    7.8071   -1.1950    0.0000 C   0  0  0  0  0  0  0  0  0 17  0  0
    9.7378    0.5434    0.0000 C   0  0  0  0  0  0  0  0  0 29  0  0
    4.2558    4.6904    0.0000 N   0  0  0  0  0  0  0  0  0  9  0  0
    7.1902    5.3142    0.0000 O   0  0  0  0  0  0  0  0  0  5  0  0
    7.3435   -2.6216    0.0000 H   0  0  0  0  0  0  0  0  0  0  0  0
    9.2336   -1.6585    0.0000 H   0  0  0  0  0  0  0  0  0  0  0  0
    6.5350   -0.4001    0.0000 H   0  0  0  0  0  0  0  0  0  0  0  0
   11.2050    0.8553    0.0000 C   0  0  0  0  0  0  0  0  0 28  0  0
    9.4259    2.0107    0.0000 H   0  0  0  0  0  0  0  0  0  0  0  0
   10.0497   -0.9238    0.0000 H   0  0  0  0  0  0  0  0  0  0  0  0
    2.7886    4.3786    0.0000 C   0  0  0  0  0  0  0  0  0 33  0  0
    4.7193    6.1170    0.0000 H   0  0  0  0  0  0  0  0  0  0  0  0
    8.6575    5.6260    0.0000 C   0  0  0  0  0  0  0  0  0 30  0  0
   12.6722    1.1672    0.0000 N   0  0  0  0  0  0  0  0  0 11  0  0
   11.5169   -0.6119    0.0000 H   0  0  0  0  0  0  0  0  0  0  0  0
   10.8932    2.3225    0.0000 H   0  0  0  0  0  0  0  0  0  0  0  0
    1.7849    5.4933    0.0000 N   0  0  0  0  0  0  0  0  0  6  0  0
    2.3250    2.9520    0.0000 N   0  0  0  0  0  0  0  0  0  7  0  0
   10.1247    5.9379    0.0000 C   0  0  0  0  0  0  0  0  0 41  0  0
    8.9693    4.1588    0.0000 H   0  0  0  0  0  0  0  0  0  0  0  0
    8.3456    7.0933    0.0000 H   0  0  0  0  0  0  0  0  0  0  0  0
   13.6759    0.0524    0.0000 C   0  0  0  0  0  0  0  0  0 15  0  0
   13.1358    2.5937    0.0000 C   0  0  0  0  0  0  0  0  0 16  0  0
    0.3177    5.1814    0.0000 C   0  0  0  0  0  0  0  0  0 22  0  0
    0.8578    2.6401    0.0000 C   0  0  0  0  0  0  0  0  0 32  0  0
   11.5919    6.2498    0.0000 F   0  0  0  0  0  0  0  0  0  1  0  0
   10.4365    4.4707    0.0000 F   0  0  0  0  0  0  0  0  0  2  0  0
    9.8128    7.4051    0.0000 F   0  0  0  0  0  0  0  0  0  3  0  0
   14.6796   -1.0623    0.0000 H   0  0  0  0  0  0  0  0  0  0  0  0
   14.7907    1.0561    0.0000 H   0  0  0  0  0  0  0  0  0  0  0  0
   12.5612   -0.9512    0.0000 H   0  0  0  0  0  0  0  0  0  0  0  0
   13.5993    4.0203    0.0000 H   0  0  0  0  0  0  0  0  0  0  0  0
   14.5624    2.1302    0.0000 H   0  0  0  0  0  0  0  0  0  0  0  0
   11.7092    3.0573    0.0000 H   0  0  0  0  0  0  0  0  0  0  0  0
   -0.1459    3.7548    0.0000 C   0  0  0  0  0  0  0  0  0 23  0  0
   -0.6860    6.2961    0.0000 H   0  0  0  0  0  0  0  0  0  0  0  0
    0.3943    1.2135    0.0000 C   0  0  0  0  0  0  0  0  0 38  0  0
   -1.6402    3.6241    0.0000 H   0  0  0  0  0  0  0  0  0  0  0  0
    1.2760    0.0000    0.0000 C   0  0  0  0  0  0  0  0  0 27  0  0
   -1.0323    0.7500    0.0000 C   0  0  0  0  0  0  0  0  0 39  0  0
    0.3943   -1.2135    0.0000 N   0  0  0  0  0  0  0  0  0 13  0  0
    2.7760    0.0000    0.0000 H   0  0  0  0  0  0  0  0  0  0  0  0
   -2.3313    1.5000    0.0000 C   0  0  0  0  0  0  0  0  0 25  0  0
   -1.0323   -0.7500    0.0000 C   0  0  0  0  0  0  0  0  0 40  0  0
    0.8578   -2.6401    0.0000 C   0  0  0  0  0  0  0  0  0 18  0  0
   -3.6304    0.7500    0.0000 C   0  0  0  0  0  0  0  0  0 20  0  0
   -2.5142    2.9888    0.0000 H   0  0  0  0  0  0  0  0  0  0  0  0
   -2.3313   -1.5000    0.0000 C   0  0  0  0  0  0  0  0  0 26  0  0
    1.3213   -4.0667    0.0000 H   0  0  0  0  0  0  0  0  0  0  0  0
    2.2844   -2.1766    0.0000 H   0  0  0  0  0  0  0  0  0  0  0  0
   -0.5688   -3.1036    0.0000 H   0  0  0  0  0  0  0  0  0  0  0  0
   -3.6304   -0.7500    0.0000 C   0  0  0  0  0  0  0  0  0 21  0  0
   -4.9294    1.5000    0.0000 H   0  0  0  0  0  0  0  0  0  0  0  0
   -2.3313   -3.0000    0.0000 H   0  0  0  0  0  0  0  0  0  0  0  0
   -4.9294   -1.5000    0.0000 H   0  0  0  0  0  0  0  0  0  0  0  0
    4.4614   -4.7444    0.0000 H   0  0  0  0  0  0  0  0  0  0  0  0
    6.4906   -5.8233    0.0000 H   0  0  0  0  0  0  0  0  0  0  0  0
  1  2  1  0
  2  3  1  0
  3  1  1  0
  4  1  1  0
  1  5  1  0
  6  4  1  0
  4  7  2  0
  8  6  1  0
  6  9  1  0
 10  8  2  0
  8 11  1  0
 12 10  1  0
 10 13  1  0
 11 14  2  0
 11 15  1  0
 16 12  2  0
 13 17  1  0
 13 18  1  0
 14 19  1  0
 14 16  1  0
 20 16  1  0
 17 21  1  0
 17 22  1  0
 17 23  1  0
 18 24  1  0
 18 25  1  0
 18 26  1  0
 19 27  1  0
 19 28  1  0
 29 20  1  0
 24 30  1  0
 24 31  1  0
 24 32  1  0
 27 33  2  0
 34 27  1  0
 35 29  1  0
 29 36  1  0
 29 37  1  0
 30 38  1  0
 30 39  1  0
 33 40  1  0
 41 34  2  0
 42 35  1  0
 35 43  1  0
 35 44  1  0
 38 45  1  0
 38 46  1  0
 38 47  1  0
 39 48  1  0
 39 49  1  0
 39 50  1  0
 40 51  2  0
 40 52  1  0
 51 41  1  0
 41 53  1  0
 51 54  1  0
 53 55  2  0
 56 53  1  0
 55 57  1  0
 55 58  1  0
 59 56  2  0
 56 60  1  0
 57 61  1  0
 57 60  1  0
 62 59  1  0
 59 63  1  0
 60 64  2  0
 61 65  1  0
 61 66  1  0
 61 67  1  0
 68 62  2  0
 62 69  1  0
 64 68  1  0
 64 70  1  0
 68 71  1  0
  2 72  1  0
  2 73  1  0
M  END
>  <SMILES>  (8) 
CN(C)CCN(C)c1nc(OCC(F)(F)F)c(Nc2nccc(-c3cn(C)c4ccccc34)n2)cc1NC(=O)C1CO1

>  <Molecular Weight>  (8) 
584.6

>  <Substrate_ID>  (8) 
MOL0062

>  <Substrate>  (8) 


>  <Substrate_SMILES>  (8) 
C=CC(=O)Nc1cc(Nc2nccc(-c3cn(C)c4ccccc34)n2)c(OCC(F)(F)F)nc1N(C)CCN(C)C

>  <Reaction>  (8) 
epoxidation

>  <Score>  (8) 
0.1045

>  <Reaction_Score>  (8) 
0.055

>  <Bond_Score>  (8) 
0.1983

>  <Rank>  (8) 
8

>  <Subtype>  (8) 
REACTION

>  <Subtype_Scores>  (8) 
[REACTION] SOM_score: 0.1983, Reaction_score: 0.0550, Score: 0.1045


$$$$

     RDKit          2D

 73 76  0  0  0  0  0  0  0  0999 V2000
    7.3435   -2.6216    0.0000 C   0  0  0  0  0  0  0  0  0 28  0  0
    6.8800   -4.0482    0.0000 N   0  0  0  0  0  4  0  0  0 11  0  0
    6.4165   -5.4748    0.0000 C   0  0  0  0  0  0  0  0  0 16  0  0
    8.3066   -4.5117    0.0000 C   0  0  0  0  0  0  0  0  0 15  0  0
    5.4534   -3.5847    0.0000 O   0  0  0  0  0  1  0  0  0 42  0  0
    7.8071   -1.1950    0.0000 C   0  0  0  0  0  0  0  0  0 29  0  0
    5.9169   -2.1581    0.0000 H   0  0  0  0  0  0  0  0  0  0  0  0
    8.8160   -2.9078    0.0000 H   0  0  0  0  0  0  0  0  0  0  0  0
    8.2706    0.2316    0.0000 N   0  0  0  0  0  0  0  0  0 12  0  0
    6.3805   -0.7315    0.0000 H   0  0  0  0  0  0  0  0  0  0  0  0
    9.2336   -1.6585    0.0000 H   0  0  0  0  0  0  0  0  0  0  0  0
    7.2669    1.3463    0.0000 C   0  0  0  0  0  0  0  0  0 37  0  0
    9.7378    0.5434    0.0000 C   0  0  0  0  0  0  0  0  0 17  0  0
    5.7997    1.0344    0.0000 N   0  0  0  0  0  0  0  0  0  8  0  0
    7.7304    2.7729    0.0000 C   0  0  0  0  0  0  0  0  0 35  0  0
   11.2050    0.8553    0.0000 H   0  0  0  0  0  0  0  0  0  0  0  0
   10.0497   -0.9238    0.0000 H   0  0  0  0  0  0  0  0  0  0  0  0
    9.6520    1.5238    0.0000 H   0  0  0  0  0  0  0  0  0  0  0  0
    4.7960    2.1491    0.0000 C   0  0  0  0  0  0  0  0  0 36  0  0
    9.1976    3.0847    0.0000 N   0  0  0  0  0  0  0  0  0 10  0  0
    6.7267    3.8876    0.0000 C   0  0  0  0  0  0  0  0  0 24  0  0
    3.3287    1.8373    0.0000 O   0  0  0  0  0  0  0  0  0  5  0  0
    5.2595    3.5757    0.0000 C   0  0  0  0  0  0  0  0  0 34  0  0
    9.6612    4.5113    0.0000 C   0  0  0  0  0  0  0  0  0 31  0  0
    9.9404    2.4391    0.0000 H   0  0  0  0  0  0  0  0  0  0  0  0
    7.1902    5.3142    0.0000 H   0  0  0  0  0  0  0  0  0  0  0  0
    2.8652    0.4107    0.0000 C   0  0  0  0  0  0  0  0  0 30  0  0
    4.2558    4.6904    0.0000 N   0  0  0  0  0  0  0  0  0  9  0  0
    8.6575    5.6260    0.0000 O   0  0  0  0  0  0  0  0  0  4  0  0
   11.1284    4.8232    0.0000 C   0  0  0  0  0  0  0  0  0 19  0  0
    2.4017   -1.0159    0.0000 C   0  0  0  0  0  0  0  0  0 41  0  0
    4.2918   -0.0528    0.0000 H   0  0  0  0  0  0  0  0  0  0  0  0
    1.4386    0.8742    0.0000 H   0  0  0  0  0  0  0  0  0  0  0  0
    2.7886    4.3786    0.0000 C   0  0  0  0  0  0  0  0  0 33  0  0
    4.7193    6.1170    0.0000 H   0  0  0  0  0  0  0  0  0  0  0  0
   11.5919    6.2498    0.0000 C   0  0  0  0  0  0  0  0  0 14  0  0
   12.1321    3.7085    0.0000 H   0  0  0  0  0  0  0  0  0  0  0  0
    2.1931   -2.0893    0.0000 F   0  0  0  0  0  0  0  0  0  1  0  0
    3.8283   -1.4794    0.0000 F   0  0  0  0  0  0  0  0  0  2  0  0
    1.3248   -1.2059    0.0000 F   0  0  0  0  0  0  0  0  0  3  0  0
    1.7849    5.4933    0.0000 N   0  0  0  0  0  0  0  0  0  6  0  0
    2.3250    2.9520    0.0000 N   0  0  0  0  0  0  0  0  0  7  0  0
   13.0591    6.5616    0.0000 H   0  0  0  0  0  0  0  0  0  0  0  0
   10.5882    7.3645    0.0000 H   0  0  0  0  0  0  0  0  0  0  0  0
    0.3177    5.1814    0.0000 C   0  0  0  0  0  0  0  0  0 22  0  0
    0.8578    2.6401    0.0000 C   0  0  0  0  0  0  0  0  0 32  0  0
   -0.1459    3.7548    0.0000 C   0  0  0  0  0  0  0  0  0 23  0  0
   -0.6860    6.2961    0.0000 H   0  0  0  0  0  0  0  0  0  0  0  0
    0.3943    1.2135    0.0000 C   0  0  0  0  0  0  0  0  0 38  0  0
   -1.6402    3.6241    0.0000 H   0  0  0  0  0  0  0  0  0  0  0  0
    1.2760    0.0000    0.0000 C   0  0  0  0  0  0  0  0  0 27  0  0
   -1.0323    0.7500    0.0000 C   0  0  0  0  0  0  0  0  0 39  0  0
    0.3943   -1.2135    0.0000 N   0  0  0  0  0  0  0  0  0 13  0  0
    2.1354   -0.2143    0.0000 H   0  0  0  0  0  0  0  0  0  0  0  0
   -2.3313    1.5000    0.0000 C   0  0  0  0  0  0  0  0  0 25  0  0
   -1.0323   -0.7500    0.0000 C   0  0  0  0  0  0  0  0  0 40  0  0
    0.8578   -2.6401    0.0000 C   0  0  0  0  0  0  0  0  0 18  0  0
   -3.6304    0.7500    0.0000 C   0  0  0  0  0  0  0  0  0 20  0  0
   -2.5142    2.9888    0.0000 H   0  0  0  0  0  0  0  0  0  0  0  0
   -2.3313   -1.5000    0.0000 C   0  0  0  0  0  0  0  0  0 26  0  0
    1.3213   -4.0667    0.0000 H   0  0  0  0  0  0  0  0  0  0  0  0
    1.9312   -2.4315    0.0000 H   0  0  0  0  0  0  0  0  0  0  0  0
   -0.5688   -3.1036    0.0000 H   0  0  0  0  0  0  0  0  0  0  0  0
   -3.6304   -0.7500    0.0000 C   0  0  0  0  0  0  0  0  0 21  0  0
   -4.9294    1.5000    0.0000 H   0  0  0  0  0  0  0  0  0  0  0  0
   -2.3313   -3.0000    0.0000 H   0  0  0  0  0  0  0  0  0  0  0  0
   -4.9294   -1.5000    0.0000 H   0  0  0  0  0  0  0  0  0  0  0  0
    5.9529   -6.9014    0.0000 H   0  0  0  0  0  0  0  0  0  0  0  0
    4.9899   -5.0113    0.0000 H   0  0  0  0  0  0  0  0  0  0  0  0
    7.7759   -6.1087    0.0000 H   0  0  0  0  0  0  0  0  0  0  0  0
    9.7332   -4.9752    0.0000 H   0  0  0  0  0  0  0  0  0  0  0  0
    8.0204   -5.9842    0.0000 H   0  0  0  0  0  0  0  0  0  0  0  0
    8.9405   -3.1523    0.0000 H   0  0  0  0  0  0  0  0  0  0  0  0
  1  2  1  0
  2  3  1  0
  2  4  1  0
  2  5  1  0
  6  1  1  0
  1  7  1  0
  1  8  1  0
  9  6  1  0
  6 10  1  0
  6 11  1  0
 12  9  1  0
  9 13  1  0
 14 12  2  0
 12 15  1  0
 13 16  1  0
 13 17  1  0
 13 18  1  0
 19 14  1  0
 15 20  1  0
 15 21  2  0
 22 19  1  0
 23 19  2  0
 20 24  1  0
 20 25  1  0
 21 23  1  0
 21 26  1  0
 27 22  1  0
 23 28  1  0
 24 29  2  0
 24 30  1  0
 31 27  1  0
 27 32  1  0
 27 33  1  0
 28 34  1  0
 28 35  1  0
 30 36  2  0
 30 37  1  0
 38 31  1  0
 31 39  1  0
 31 40  1  0
 34 41  2  0
 42 34  1  0
 36 43  1  0
 36 44  1  0
 41 45  1  0
 46 42  2  0
 45 47  2  0
 45 48  1  0
 47 46  1  0
 46 49  1  0
 47 50  1  0
 49 51  2  0
 52 49  1  0
 51 53  1  0
 51 54  1  0
 55 52  2  0
 52 56  1  0
 53 57  1  0
 53 56  1  0
 58 55  1  0
 55 59  1  0
 56 60  2  0
 57 61  1  0
 57 62  1  0
 57 63  1  0
 64 58  2  0
 58 65  1  0
 60 64  1  0
 60 66  1  0
 64 67  1  0
  3 68  1  0
  3 69  1  0
  3 70  1  0
  4 71  1  0
  4 72  1  0
  4 73  1  0
M  CHG  2   2   1   5  -1
M  END
>  <SMILES>  (9) 
C=CC(=O)Nc1cc(Nc2nccc(-c3cn(C)c4ccccc34)n2)c(OCC(F)(F)F)nc1N(C)CC[N+](C)(C)[O-]

>  <Molecular Weight>  (9) 
584.6

>  <Substrate_ID>  (9) 
MOL0062

>  <Substrate>  (9) 


>  <Substrate_SMILES>  (9) 
C=CC(=O)Nc1cc(Nc2nccc(-c3cn(C)c4ccccc34)n2)c(OCC(F)(F)F)nc1N(C)CCN(C)C

>  <Reaction>  (9) 
N-oxidation_(RN(CH3)2),N-oxidation

>  <Score>  (9) 
0.0823

>  <Reaction_Score>  (9) 
0.0079

>  <Bond_Score>  (9) 
0.8616

>  <Rank>  (9) 
9

>  <Subtype>  (9) 
REACTION

>  <Subtype_Scores>  (9) 
[REACTION] SOM_score: 0.8616, Reaction_score: 0.0079, Score: 0.0823


$$$$

     RDKit          2D

 73 76  0  0  0  0  0  0  0  0999 V2000
    8.2706    0.2316    0.0000 N   0  0  0  0  0  4  0  0  0 12  0  0
    9.3853    1.2353    0.0000 O   0  0  0  0  0  1  0  0  0 42  0  0
    7.2669    1.3463    0.0000 C   0  0  0  0  0  0  0  0  0 37  0  0
    9.2743   -0.8832    0.0000 C   0  0  0  0  0  0  0  0  0 17  0  0
    7.1559   -0.7721    0.0000 C   0  0  0  0  0  0  0  0  0 29  0  0
   10.2780   -1.9979    0.0000 H   0  0  0  0  0  0  0  0  0  0  0  0
    8.6932   -1.5516    0.0000 H   0  0  0  0  0  0  0  0  0  0  0  0
   10.3890    0.1205    0.0000 H   0  0  0  0  0  0  0  0  0  0  0  0
    6.0411   -1.7758    0.0000 C   0  0  0  0  0  0  0  0  0 28  0  0
    5.9123    0.0666    0.0000 H   0  0  0  0  0  0  0  0  0  0  0  0
    7.6639   -1.4977    0.0000 H   0  0  0  0  0  0  0  0  0  0  0  0
    4.9264   -2.7795    0.0000 N   0  0  0  0  0  0  0  0  0 11  0  0
    7.0448   -2.8905    0.0000 H   0  0  0  0  0  0  0  0  0  0  0  0
    5.1378   -0.7726    0.0000 H   0  0  0  0  0  0  0  0  0  0  0  0
    5.2383   -4.2467    0.0000 C   0  0  0  0  0  0  0  0  0 15  0  0
    3.4998   -2.3160    0.0000 C   0  0  0  0  0  0  0  0  0 16  0  0
    5.5502   -5.7140    0.0000 H   0  0  0  0  0  0  0  0  0  0  0  0
    3.7711   -4.5586    0.0000 H   0  0  0  0  0  0  0  0  0  0  0  0
    6.7055   -3.9349    0.0000 H   0  0  0  0  0  0  0  0  0  0  0  0
    2.7417   -2.0697    0.0000 H   0  0  0  0  0  0  0  0  0  0  0  0
    3.0363   -3.7426    0.0000 H   0  0  0  0  0  0  0  0  0  0  0  0
    4.2153   -1.1712    0.0000 H   0  0  0  0  0  0  0  0  0  0  0  0
    5.7997    1.0344    0.0000 N   0  0  0  0  0  0  0  0  0  8  0  0
    7.7304    2.7729    0.0000 C   0  0  0  0  0  0  0  0  0 35  0  0
    4.7960    2.1491    0.0000 C   0  0  0  0  0  0  0  0  0 36  0  0
    9.1976    3.0847    0.0000 N   0  0  0  0  0  0  0  0  0 10  0  0
    6.7267    3.8876    0.0000 C   0  0  0  0  0  0  0  0  0 24  0  0
    3.3287    1.8373    0.0000 O   0  0  0  0  0  0  0  0  0  5  0  0
    5.2595    3.5757    0.0000 C   0  0  0  0  0  0  0  0  0 34  0  0
    9.6612    4.5113    0.0000 C   0  0  0  0  0  0  0  0  0 31  0  0
   10.2013    1.9700    0.0000 H   0  0  0  0  0  0  0  0  0  0  0  0
    7.1902    5.3142    0.0000 H   0  0  0  0  0  0  0  0  0  0  0  0
    2.8652    0.4107    0.0000 C   0  0  0  0  0  0  0  0  0 30  0  0
    4.2558    4.6904    0.0000 N   0  0  0  0  0  0  0  0  0  9  0  0
    8.6575    5.6260    0.0000 O   0  0  0  0  0  0  0  0  0  4  0  0
   11.1284    4.8232    0.0000 C   0  0  0  0  0  0  0  0  0 19  0  0
    2.4017   -1.0159    0.0000 C   0  0  0  0  0  0  0  0  0 41  0  0
    4.3377    0.1245    0.0000 H   0  0  0  0  0  0  0  0  0  0  0  0
    1.4386    0.8742    0.0000 H   0  0  0  0  0  0  0  0  0  0  0  0
    2.7886    4.3786    0.0000 C   0  0  0  0  0  0  0  0  0 33  0  0
    4.7193    6.1170    0.0000 H   0  0  0  0  0  0  0  0  0  0  0  0
   11.5919    6.2498    0.0000 C   0  0  0  0  0  0  0  0  0 14  0  0
   12.1321    3.7085    0.0000 H   0  0  0  0  0  0  0  0  0  0  0  0
    2.1554   -1.7741    0.0000 F   0  0  0  0  0  0  0  0  0  1  0  0
    3.8741   -1.3021    0.0000 F   0  0  0  0  0  0  0  0  0  2  0  0
    0.9245   -1.2765    0.0000 F   0  0  0  0  0  0  0  0  0  3  0  0
    1.7849    5.4933    0.0000 N   0  0  0  0  0  0  0  0  0  6  0  0
    2.3250    2.9520    0.0000 N   0  0  0  0  0  0  0  0  0  7  0  0
   13.0591    6.5616    0.0000 H   0  0  0  0  0  0  0  0  0  0  0  0
   10.5882    7.3645    0.0000 H   0  0  0  0  0  0  0  0  0  0  0  0
    0.3177    5.1814    0.0000 C   0  0  0  0  0  0  0  0  0 22  0  0
    0.8578    2.6401    0.0000 C   0  0  0  0  0  0  0  0  0 32  0  0
   -0.1459    3.7548    0.0000 C   0  0  0  0  0  0  0  0  0 23  0  0
   -0.6860    6.2961    0.0000 H   0  0  0  0  0  0  0  0  0  0  0  0
    0.3943    1.2135    0.0000 C   0  0  0  0  0  0  0  0  0 38  0  0
   -1.6402    3.6241    0.0000 H   0  0  0  0  0  0  0  0  0  0  0  0
    1.2760    0.0000    0.0000 C   0  0  0  0  0  0  0  0  0 27  0  0
   -1.0323    0.7500    0.0000 C   0  0  0  0  0  0  0  0  0 39  0  0
    0.3943   -1.2135    0.0000 N   0  0  0  0  0  0  0  0  0 13  0  0
    2.7314   -0.3630    0.0000 H   0  0  0  0  0  0  0  0  0  0  0  0
   -2.3313    1.5000    0.0000 C   0  0  0  0  0  0  0  0  0 25  0  0
   -1.0323   -0.7500    0.0000 C   0  0  0  0  0  0  0  0  0 40  0  0
    0.8578   -2.6401    0.0000 C   0  0  0  0  0  0  0  0  0 18  0  0
   -3.6304    0.7500    0.0000 C   0  0  0  0  0  0  0  0  0 20  0  0
   -2.5142    2.9888    0.0000 H   0  0  0  0  0  0  0  0  0  0  0  0
   -2.3313   -1.5000    0.0000 C   0  0  0  0  0  0  0  0  0 26  0  0
    1.3213   -4.0667    0.0000 H   0  0  0  0  0  0  0  0  0  0  0  0
    2.2844   -2.1766    0.0000 H   0  0  0  0  0  0  0  0  0  0  0  0
   -0.5688   -3.1036    0.0000 H   0  0  0  0  0  0  0  0  0  0  0  0
   -3.6304   -0.7500    0.0000 C   0  0  0  0  0  0  0  0  0 21  0  0
   -4.9294    1.5000    0.0000 H   0  0  0  0  0  0  0  0  0  0  0  0
   -2.3313   -3.0000    0.0000 H   0  0  0  0  0  0  0  0  0  0  0  0
   -4.9294   -1.5000    0.0000 H   0  0  0  0  0  0  0  0  0  0  0  0
  1  2  1  0
  1  3  1  0
  1  4  1  0
  1  5  1  0
  4  6  1  0
  4  7  1  0
  4  8  1  0
  5  9  1  0
  5 10  1  0
  5 11  1  0
  9 12  1  0
  9 13  1  0
  9 14  1  0
 12 15  1  0
 12 16  1  0
 15 17  1  0
 15 18  1  0
 15 19  1  0
 16 20  1  0
 16 21  1  0
 16 22  1  0
 23  3  2  0
  3 24  1  0
 25 23  1  0
 24 26  1  0
 24 27  2  0
 28 25  1  0
 29 25  2  0
 26 30  1  0
 26 31  1  0
 27 29  1  0
 27 32  1  0
 33 28  1  0
 29 34  1  0
 30 35  2  0
 30 36  1  0
 37 33  1  0
 33 38  1  0
 33 39  1  0
 34 40  1  0
 34 41  1  0
 36 42  2  0
 36 43  1  0
 44 37  1  0
 37 45  1  0
 37 46  1  0
 40 47  2  0
 48 40  1  0
 42 49  1  0
 42 50  1  0
 47 51  1  0
 52 48  2  0
 51 53  2  0
 51 54  1  0
 53 52  1  0
 52 55  1  0
 53 56  1  0
 55 57  2  0
 58 55  1  0
 57 59  1  0
 57 60  1  0
 61 58  2  0
 58 62  1  0
 59 63  1  0
 59 62  1  0
 64 61  1  0
 61 65  1  0
 62 66  2  0
 63 67  1  0
 63 68  1  0
 63 69  1  0
 70 64  2  0
 64 71  1  0
 66 70  1  0
 66 72  1  0
 70 73  1  0
M  CHG  2   1   1   2  -1
M  END
>  <SMILES>  (10) 
C=CC(=O)Nc1cc(Nc2nccc(-c3cn(C)c4ccccc34)n2)c(OCC(F)(F)F)nc1[N+](C)([O-])CCN(C)C

>  <Molecular Weight>  (10) 
584.6

>  <Substrate_ID>  (10) 
MOL0062

>  <Substrate>  (10) 


>  <Substrate_SMILES>  (10) 
C=CC(=O)Nc1cc(Nc2nccc(-c3cn(C)c4ccccc34)n2)c(OCC(F)(F)F)nc1N(C)CCN(C)C

>  <Reaction>  (10) 
N-oxidation

>  <Score>  (10) 
0.0616

>  <Reaction_Score>  (10) 
0.0045

>  <Bond_Score>  (10) 
0.8369

>  <Rank>  (10) 
10

>  <Subtype>  (10) 
REACTION

>  <Subtype_Scores>  (10) 
[REACTION] SOM_score: 0.8369, Reaction_score: 0.0045, Score: 0.0616


$$$$
