
     RDKit          2D

118123  0  0  0  0  0  0  0  0999 V2000
    4.6471  -16.6832    0.0000 C   0  0  0  0  0  0  0  0  0 56  0  0
    5.9776  -15.9905    0.0000 C   0  0  0  0  0  0  0  0  0 20  0  0
    7.3082  -15.2979    0.0000 O   0  0  0  0  0  0  0  0  0 61  0  0
    3.9545  -15.3526    0.0000 O   0  0  0  0  0  0  0  0  0 13  0  0
    3.3166  -17.3758    0.0000 C   0  0  0  0  0  0  0  0  0 21  0  0
    5.3398  -18.0137    0.0000 C   0  0  0  0  0  0  0  0  0 22  0  0
    4.7605  -14.0876    0.0000 C   0  0  0  0  0  0  0  0  0 40  0  0
    2.0804  -18.2254    0.0000 H   0  0  0  0  0  0  0  0  0  0  0  0
    3.6268  -18.2054    0.0000 H   0  0  0  0  0  0  0  0  0  0  0  0
    2.6240  -16.0453    0.0000 H   0  0  0  0  0  0  0  0  0  0  0  0
    6.0324  -19.3442    0.0000 H   0  0  0  0  0  0  0  0  0  0  0  0
    6.7448  -17.4884    0.0000 H   0  0  0  0  0  0  0  0  0  0  0  0
    4.6098  -18.5154    0.0000 H   0  0  0  0  0  0  0  0  0  0  0  0
    4.0678  -12.7570    0.0000 N   0  0  0  0  0  0  0  0  0 15  0  0
    6.2590  -14.1530    0.0000 O   0  0  0  0  0  0  0  0  0  2  0  0
    2.5693  -12.6916    0.0000 C   0  0  0  0  0  0  0  0  0 53  0  0
    5.1559  -11.7246    0.0000 H   0  0  0  0  0  0  0  0  0  0  0  0
    2.6347  -11.1930    0.0000 C   0  0  0  0  0  0  0  0  0 52  0  0
    2.5038  -14.1902    0.0000 C   0  0  0  0  0  0  0  0  0 47  0  0
    1.0707  -12.6262    0.0000 H   0  0  0  0  0  0  0  0  0  0  0  0
    2.7001   -9.6945    0.0000 C   0  0  0  0  0  0  0  0  0 42  0  0
    4.1333  -11.2585    0.0000 O   0  0  0  0  0  0  0  0  0  6  0  0
    1.1361  -11.1276    0.0000 H   0  0  0  0  0  0  0  0  0  0  0  0
    1.1733  -14.8828    0.0000 C   0  0  0  0  0  0  0  0  0 34  0  0
    3.7689  -14.9961    0.0000 C   0  0  0  0  0  0  0  0  0 35  0  0
    1.4350   -8.8885    0.0000 O   0  0  0  0  0  0  0  0  0  9  0  0
    4.0306   -9.0018    0.0000 O   0  0  0  0  0  0  0  0  0  4  0  0
    5.1273  -12.3818    0.0000 H   0  0  0  0  0  0  0  0  0  0  0  0
    1.1079  -16.3814    0.0000 C   0  0  0  0  0  0  0  0  0 30  0  0
   -0.0918  -14.0769    0.0000 H   0  0  0  0  0  0  0  0  0  0  0  0
    3.7035  -16.4947    0.0000 C   0  0  0  0  0  0  0  0  0 31  0  0
    5.1739  -14.4709    0.0000 H   0  0  0  0  0  0  0  0  0  0  0  0
    1.5005   -7.3899    0.0000 C   0  0  0  0  0  0  0  0  0 49  0  0
    2.3730  -17.1873    0.0000 C   0  0  0  0  0  0  0  0  0 27  0  0
   -0.2226  -17.0740    0.0000 H   0  0  0  0  0  0  0  0  0  0  0  0
    4.7360  -17.5828    0.0000 H   0  0  0  0  0  0  0  0  0  0  0  0
    0.0133   -7.5857    0.0000 C   0  0  0  0  0  0  0  0  0 44  0  0
    2.0745   -6.0041    0.0000 C   0  0  0  0  0  0  0  0  0 38  0  0
    2.9649   -7.7146    0.0000 H   0  0  0  0  0  0  0  0  0  0  0  0
    2.1254  -18.6668    0.0000 H   0  0  0  0  0  0  0  0  0  0  0  0
   -0.8999   -6.3957    0.0000 C   0  0  0  0  0  0  0  0  0 45  0  0
   -0.5607   -8.9716    0.0000 C   0  0  0  0  0  0  0  0  0 19  0  0
    1.2990   -4.7084    0.0000 C   0  0  0  0  0  0  0  0  0 60  0  0
    3.4284   -6.6499    0.0000 H   0  0  0  0  0  0  0  0  0  0  0  0
    3.2151   -5.0300    0.0000 H   0  0  0  0  0  0  0  0  0  0  0  0
   -2.1989   -5.6457    0.0000 C   0  0  0  0  0  0  0  0  0 48  0  0
    0.5490   -6.0075    0.0000 C   0  0  0  0  0  0  0  0  0 57  0  0
   -1.1348  -10.3574    0.0000 H   0  0  0  0  0  0  0  0  0  0  0  0
   -1.9466   -8.3975    0.0000 H   0  0  0  0  0  0  0  0  0  0  0  0
    0.5272  -10.0042    0.0000 H   0  0  0  0  0  0  0  0  0  0  0  0
    2.7862   -4.9042    0.0000 O   0  0  0  0  0  0  0  0  0  7  0  0
    0.9108   -3.2595    0.0000 C   0  0  0  0  0  0  0  0  0 55  0  0
   -2.5871   -4.1968    0.0000 C   0  0  0  0  0  0  0  0  0 43  0  0
   -3.6989   -5.6457    0.0000 O   0  0  0  0  0  0  0  0  0  8  0  0
   -2.4076   -7.1311    0.0000 H   0  0  0  0  0  0  0  0  0  0  0  0
    0.5490   -7.5075    0.0000 C   0  0  0  0  0  0  0  0  0 23  0  0
    1.9979   -6.3957    0.0000 C   0  0  0  0  0  0  0  0  0 24  0  0
    3.5475   -3.6118    0.0000 H   0  0  0  0  0  0  0  0  0  0  0  0
    2.4108   -3.2595    0.0000 O   0  0  0  0  0  0  0  0  0 12  0  0
   -0.3882   -2.5095    0.0000 C   0  0  0  0  0  0  0  0  0 51  0  0
    1.6381   -1.9477    0.0000 H   0  0  0  0  0  0  0  0  0  0  0  0
   -1.8371   -2.8978    0.0000 C   0  0  0  0  0  0  0  0  0 59  0  0
   -4.0743   -4.0010    0.0000 O   0  0  0  0  0  0  0  0  0  5  0  0
   -4.4489   -6.9447    0.0000 C   0  0  0  0  0  0  0  0  0 16  0  0
    0.3662   -8.9963    0.0000 H   0  0  0  0  0  0  0  0  0  0  0  0
   -0.9510   -7.5075    0.0000 H   0  0  0  0  0  0  0  0  0  0  0  0
    2.0379   -7.3246    0.0000 H   0  0  0  0  0  0  0  0  0  0  0  0
    3.3887   -6.9577    0.0000 H   0  0  0  0  0  0  0  0  0  0  0  0
    2.8797   -5.1823    0.0000 H   0  0  0  0  0  0  0  0  0  0  0  0
    2.1548   -7.8875    0.0000 H   0  0  0  0  0  0  0  0  0  0  0  0
    3.1608   -1.9605    0.0000 C   0  0  0  0  0  0  0  0  0 41  0  0
   -0.0000   -1.0607    0.0000 C   0  0  0  0  0  0  0  0  0 58  0  0
   -0.1924   -3.9967    0.0000 H   0  0  0  0  0  0  0  0  0  0  0  0
   -2.8978   -1.8371    0.0000 C   0  0  0  0  0  0  0  0  0 50  0  0
   -3.3243   -3.0936    0.0000 C   0  0  0  0  0  0  0  0  0 25  0  0
   -5.1989   -8.2438    0.0000 H   0  0  0  0  0  0  0  0  0  0  0  0
   -5.7479   -6.1947    0.0000 H   0  0  0  0  0  0  0  0  0  0  0  0
   -3.2510   -7.8475    0.0000 H   0  0  0  0  0  0  0  0  0  0  0  0
    2.5748   -0.5797    0.0000 O   0  0  0  0  0  0  0  0  0  3  0  0
    4.6608   -1.9605    0.0000 C   0  0  0  0  0  0  0  0  0 46  0  0
    1.2990   -1.8107    0.0000 O   0  0  0  0  0  0  0  0  0 14  0  0
    1.0607    0.0000    0.0000 C   0  0  0  0  0  0  0  0  0 37  0  0
   -1.0607    0.0000    0.0000 C   0  0  0  0  0  0  0  0  0 54  0  0
   -2.5095   -0.3882    0.0000 C   0  0  0  0  0  0  0  0  0 36  0  0
   -4.2572   -1.2032    0.0000 O   0  0  0  0  0  0  0  0  0 10  0  0
   -4.0299   -2.8211    0.0000 H   0  0  0  0  0  0  0  0  0  0  0  0
   -4.8115   -3.2894    0.0000 H   0  0  0  0  0  0  0  0  0  0  0  0
   -4.1955   -1.8725    0.0000 H   0  0  0  0  0  0  0  0  0  0  0  0
   -3.4942   -4.5839    0.0000 H   0  0  0  0  0  0  0  0  0  0  0  0
    5.4108   -3.2595    0.0000 C   0  0  0  0  0  0  0  0  0 32  0  0
    5.4108   -0.6615    0.0000 C   0  0  0  0  0  0  0  0  0 33  0  0
    2.5981   -1.0607    0.0000 C   0  0  0  0  0  0  0  0  0 39  0  0
    0.0000    1.0607    0.0000 O   0  0  0  0  0  0  0  0  0 11  0  0
    1.9841    1.1820    0.0000 H   0  0  0  0  0  0  0  0  0  0  0  0
    2.2427   -0.9235    0.0000 H   0  0  0  0  0  0  0  0  0  0  0  0
   -1.6467    1.3808    0.0000 H   0  0  0  0  0  0  0  0  0  0  0  0
   -2.6403    1.1061    0.0000 H   0  0  0  0  0  0  0  0  0  0  0  0
   -3.9278    0.1002    0.0000 H   0  0  0  0  0  0  0  0  0  0  0  0
   -4.3880    0.2911    0.0000 C   0  0  0  0  0  0  0  0  0 17  0  0
    6.9108   -3.2595    0.0000 C   0  0  0  0  0  0  0  0  0 28  0  0
    4.6608   -4.5586    0.0000 H   0  0  0  0  0  0  0  0  0  0  0  0
    6.9108   -0.6615    0.0000 C   0  0  0  0  0  0  0  0  0 29  0  0
    4.6608    0.6376    0.0000 H   0  0  0  0  0  0  0  0  0  0  0  0
    2.7809    0.4282    0.0000 O   0  0  0  0  0  0  0  0  0  1  0  0
    3.8971   -1.8107    0.0000 C   0  0  0  0  0  0  0  0  0 18  0  0
   -4.5187    1.7854    0.0000 H   0  0  0  0  0  0  0  0  0  0  0  0
   -5.8823    0.1604    0.0000 H   0  0  0  0  0  0  0  0  0  0  0  0
   -2.9208    0.6030    0.0000 H   0  0  0  0  0  0  0  0  0  0  0  0
    7.6608   -1.9605    0.0000 C   0  0  0  0  0  0  0  0  0 26  0  0
    7.6608   -4.5586    0.0000 H   0  0  0  0  0  0  0  0  0  0  0  0
    7.6608    0.6376    0.0000 H   0  0  0  0  0  0  0  0  0  0  0  0
    4.9761   -2.8527    0.0000 H   0  0  0  0  0  0  0  0  0  0  0  0
    4.3105   -0.3687    0.0000 H   0  0  0  0  0  0  0  0  0  0  0  0
    3.3111   -3.1914    0.0000 H   0  0  0  0  0  0  0  0  0  0  0  0
    9.1608   -1.9605    0.0000 H   0  0  0  0  0  0  0  0  0  0  0  0
    6.8273  -17.2267    0.0000 H   0  0  0  0  0  0  0  0  0  0  0  0
    5.8080  -14.5002    0.0000 H   0  0  0  0  0  0  0  0  0  0  0  0
    8.5732  -16.1039    0.0000 H   0  0  0  0  0  0  0  0  0  0  0  0
  1  2  1  0
  2  3  1  0
  4  1  1  0
  1  5  1  0
  1  6  1  0
  7  4  1  0
  5  8  1  0
  5  9  1  0
  5 10  1  0
  6 11  1  0
  6 12  1  0
  6 13  1  0
 14  7  1  0
  7 15  2  0
 16 14  1  0
 14 17  1  0
 18 16  1  0
 16 19  1  0
 16 20  1  6
 21 18  1  0
 18 22  1  0
 18 23  1  1
 19 24  2  0
 25 19  1  0
 26 21  1  0
 21 27  2  0
 22 28  1  0
 24 29  1  0
 24 30  1  0
 31 25  2  0
 25 32  1  0
 33 26  1  0
 29 34  2  0
 29 35  1  0
 34 31  1  0
 31 36  1  0
 37 33  1  0
 33 38  1  0
 33 39  1  1
 34 40  1  0
 41 37  2  0
 37 42  1  0
 38 43  1  0
 38 44  1  0
 38 45  1  0
 46 41  1  0
 47 41  1  0
 42 48  1  0
 42 49  1  0
 42 50  1  0
 43 51  1  1
 43 52  1  0
 43 47  1  0
 53 46  1  0
 46 54  1  0
 46 55  1  6
 47 56  1  0
 47 57  1  0
 51 58  1  0
 52 59  1  0
 52 60  1  0
 52 61  1  1
 62 53  1  0
 53 63  2  0
 54 64  1  0
 56 65  1  0
 56 66  1  0
 56 67  1  0
 57 68  1  0
 57 69  1  0
 57 70  1  0
 59 71  1  0
 60 62  1  0
 60 72  1  0
 60 73  1  6
 74 62  1  0
 62 75  1  1
 64 76  1  0
 64 77  1  0
 64 78  1  0
 71 79  2  0
 71 80  1  0
 72 81  1  6
 72 82  1  0
 83 72  1  0
 84 74  1  0
 74 85  1  0
 74 86  1  6
 75 87  1  0
 75 88  1  0
 75 89  1  0
 80 90  2  0
 91 80  1  0
 92 81  1  0
 82 93  1  0
 82 94  1  0
 82 95  1  0
 93 83  1  0
 83 84  1  0
 83 96  1  6
 84 97  1  0
 84 98  1  0
 85 99  1  0
 90100  1  0
 90101  1  0
102 91  2  0
 91103  1  0
104 92  2  0
 92105  1  0
 99106  1  0
 99107  1  0
 99108  1  0
100109  2  0
100110  1  0
109102  1  0
102111  1  0
105112  1  0
105113  1  0
105114  1  0
109115  1  0
  2116  1  0
  2117  1  0
  3118  1  0
M  END
>  <SMILES>  (1) 
COC1C(=O)C2(C)C(OC)CC3OCC3(OC(C)=O)C2C(OC(=O)c2ccccc2)C2(O)CC(OC(=O)C(O)C(NC(=O)OC(C)(C)CO)c3ccccc3)C(C)=C1C2(C)C

>  <Molecular Weight>  (1) 
851.9

>  <Substrate_ID>  (1) 
MOL0027

>  <Substrate>  (1) 


>  <Substrate_SMILES>  (1) 
COC1C(=O)C2(C)C(OC)CC3OCC3(OC(C)=O)C2C(OC(=O)c2ccccc2)C2(O)CC(OC(=O)C(O)C(NC(=O)OC(C)(C)C)c3ccccc3)C(C)=C1C2(C)C

>  <Reaction>  (1) 
aliphatic_hydroxylation_(primary_carbon_next_to_quart_carbon),aliphatic hydroxylation

>  <Score>  (1) 
0.4182

>  <Reaction_Score>  (1) 
0.3866

>  <Bond_Score>  (1) 
0.4523

>  <Rank>  (1) 
1

>  <Subtype>  (1) 
REACTION

>  <Subtype_Scores>  (1) 
[REACTION] SOM_score: 0.4523, Reaction_score: 0.3866, Score: 0.4182


$$$$

     RDKit          2D

114119  0  0  0  0  0  0  0  0999 V2000
   -1.8371   -2.8978    0.0000 C   0  0  0  0  0  0  0  0  0 50  0  0
   -1.2032   -4.2572    0.0000 O   0  0  0  0  0  0  0  0  0 10  0  0
   -0.3882   -2.5095    0.0000 C   0  0  0  0  0  0  0  0  0 36  0  0
   -2.8978   -1.8371    0.0000 C   0  0  0  0  0  0  0  0  0 59  0  0
   -3.0658   -3.7581    0.0000 H   0  0  0  0  0  0  0  0  0  0  0  0
   -0.0000   -1.0607    0.0000 C   0  0  0  0  0  0  0  0  0 54  0  0
   -0.5593   -3.5896    0.0000 H   0  0  0  0  0  0  0  0  0  0  0  0
    1.0790   -2.8215    0.0000 H   0  0  0  0  0  0  0  0  0  0  0  0
   -4.2836   -1.2631    0.0000 C   0  0  0  0  0  0  0  0  0 25  0  0
   -4.1968   -2.5871    0.0000 C   0  0  0  0  0  0  0  0  0 43  0  0
   -2.5095   -0.3882    0.0000 C   0  0  0  0  0  0  0  0  0 51  0  0
    1.0607    0.0000    0.0000 O   0  0  0  0  0  0  0  0  0 11  0  0
   -1.0607    0.0000    0.0000 C   0  0  0  0  0  0  0  0  0 58  0  0
    1.4419   -1.4740    0.0000 H   0  0  0  0  0  0  0  0  0  0  0  0
   -3.7096    0.1227    0.0000 H   0  0  0  0  0  0  0  0  0  0  0  0
   -4.6762   -1.9569    0.0000 H   0  0  0  0  0  0  0  0  0  0  0  0
   -5.2376   -0.1056    0.0000 H   0  0  0  0  0  0  0  0  0  0  0  0
   -4.0010   -4.0743    0.0000 O   0  0  0  0  0  0  0  0  0  5  0  0
   -5.6457   -2.1989    0.0000 C   0  0  0  0  0  0  0  0  0 48  0  0
   -3.2595    0.9108    0.0000 C   0  0  0  0  0  0  0  0  0 55  0  0
   -1.7709    0.9173    0.0000 H   0  0  0  0  0  0  0  0  0  0  0  0
    0.0000    1.0607    0.0000 C   0  0  0  0  0  0  0  0  0 37  0  0
   -1.0607   -1.5000    0.0000 O   0  0  0  0  0  0  0  0  0 14  0  0
   -5.6457   -3.6989    0.0000 O   0  0  0  0  0  0  0  0  0  8  0  0
   -6.3957   -0.8999    0.0000 C   0  0  0  0  0  0  0  0  0 45  0  0
   -6.8592   -3.0807    0.0000 H   0  0  0  0  0  0  0  0  0  0  0  0
   -4.7084    1.2990    0.0000 C   0  0  0  0  0  0  0  0  0 60  0  0
   -3.2595    2.4108    0.0000 O   0  0  0  0  0  0  0  0  0 12  0  0
   -1.8688    1.4728    0.0000 H   0  0  0  0  0  0  0  0  0  0  0  0
   -0.9235    2.2427    0.0000 H   0  0  0  0  0  0  0  0  0  0  0  0
    1.0607    2.1213    0.0000 H   0  0  0  0  0  0  0  0  0  0  0  0
    0.2384   -2.2500    0.0000 C   0  0  0  0  0  0  0  0  0 39  0  0
   -6.9447   -4.4489    0.0000 C   0  0  0  0  0  0  0  0  0 16  0  0
   -7.4801    0.1510    0.0000 C   0  0  0  0  0  0  0  0  0 44  0  0
   -6.0075    0.5490    0.0000 C   0  0  0  0  0  0  0  0  0 57  0  0
   -5.8985    2.2122    0.0000 C   0  0  0  0  0  0  0  0  0 38  0  0
   -4.9042    2.7862    0.0000 O   0  0  0  0  0  0  0  0  0  7  0  0
   -1.9605    3.1608    0.0000 C   0  0  0  0  0  0  0  0  0 41  0  0
    1.6192   -1.6639    0.0000 O   0  0  0  0  0  0  0  0  0  1  0  0
    0.2384   -3.7500    0.0000 C   0  0  0  0  0  0  0  0  0 18  0  0
   -6.1947   -5.7479    0.0000 H   0  0  0  0  0  0  0  0  0  0  0  0
   -7.9868   -3.3699    0.0000 H   0  0  0  0  0  0  0  0  0  0  0  0
   -8.2438   -5.1989    0.0000 H   0  0  0  0  0  0  0  0  0  0  0  0
   -8.8659   -0.4230    0.0000 C   0  0  0  0  0  0  0  0  0 19  0  0
   -7.2843    1.6382    0.0000 C   0  0  0  0  0  0  0  0  0 49  0  0
   -6.3957    1.9979    0.0000 C   0  0  0  0  0  0  0  0  0 23  0  0
   -7.5075    0.5490    0.0000 C   0  0  0  0  0  0  0  0  0 24  0  0
   -4.9243    3.3528    0.0000 H   0  0  0  0  0  0  0  0  0  0  0  0
   -6.5442    3.5661    0.0000 H   0  0  0  0  0  0  0  0  0  0  0  0
   -3.7142    3.6993    0.0000 H   0  0  0  0  0  0  0  0  0  0  0  0
   -0.5797    2.5748    0.0000 O   0  0  0  0  0  0  0  0  0  3  0  0
   -1.9605    4.6608    0.0000 C   0  0  0  0  0  0  0  0  0 46  0  0
    1.7384   -3.7500    0.0000 H   0  0  0  0  0  0  0  0  0  0  0  0
   -1.2170   -4.1130    0.0000 H   0  0  0  0  0  0  0  0  0  0  0  0
    0.2384   -5.2500    0.0000 H   0  0  0  0  0  0  0  0  0  0  0  0
   -9.7582    0.7827    0.0000 H   0  0  0  0  0  0  0  0  0  0  0  0
   -8.8268   -1.9225    0.0000 H   0  0  0  0  0  0  0  0  0  0  0  0
  -10.0716   -1.3153    0.0000 H   0  0  0  0  0  0  0  0  0  0  0  0
   -8.7829    1.5727    0.0000 O   0  0  0  0  0  0  0  0  0  9  0  0
   -7.7850    3.0521    0.0000 H   0  0  0  0  0  0  0  0  0  0  0  0
   -5.2988    3.0210    0.0000 H   0  0  0  0  0  0  0  0  0  0  0  0
   -7.8572    2.3355    0.0000 H   0  0  0  0  0  0  0  0  0  0  0  0
   -6.7839    3.4468    0.0000 H   0  0  0  0  0  0  0  0  0  0  0  0
   -7.1445   -0.9064    0.0000 H   0  0  0  0  0  0  0  0  0  0  0  0
   -8.2118    1.8734    0.0000 H   0  0  0  0  0  0  0  0  0  0  0  0
   -8.9963    0.7319    0.0000 H   0  0  0  0  0  0  0  0  0  0  0  0
   -0.6615    5.4108    0.0000 C   0  0  0  0  0  0  0  0  0 32  0  0
   -3.2595    5.4108    0.0000 C   0  0  0  0  0  0  0  0  0 33  0  0
   -9.5888    2.8378    0.0000 C   0  0  0  0  0  0  0  0  0 42  0  0
   -0.6615    6.9108    0.0000 C   0  0  0  0  0  0  0  0  0 28  0  0
    0.6376    4.6608    0.0000 H   0  0  0  0  0  0  0  0  0  0  0  0
   -3.2595    6.9108    0.0000 C   0  0  0  0  0  0  0  0  0 29  0  0
   -4.5586    4.6608    0.0000 H   0  0  0  0  0  0  0  0  0  0  0  0
   -8.8962    4.1683    0.0000 O   0  0  0  0  0  0  0  0  0  4  0  0
  -11.0874    2.7724    0.0000 C   0  0  0  0  0  0  0  0  0 52  0  0
   -1.9605    7.6608    0.0000 C   0  0  0  0  0  0  0  0  0 26  0  0
    0.6376    7.6608    0.0000 H   0  0  0  0  0  0  0  0  0  0  0  0
   -4.5586    7.6608    0.0000 H   0  0  0  0  0  0  0  0  0  0  0  0
  -11.1528    4.2710    0.0000 O   0  0  0  0  0  0  0  0  0  6  0  0
  -11.0220    1.2738    0.0000 C   0  0  0  0  0  0  0  0  0 53  0  0
  -12.5573    3.0715    0.0000 H   0  0  0  0  0  0  0  0  0  0  0  0
   -1.9605    9.1608    0.0000 H   0  0  0  0  0  0  0  0  0  0  0  0
  -12.4833    4.9636    0.0000 H   0  0  0  0  0  0  0  0  0  0  0  0
  -10.9565   -0.2248    0.0000 N   0  0  0  0  0  0  0  0  0 15  0  0
  -12.5205    1.2084    0.0000 C   0  0  0  0  0  0  0  0  0 47  0  0
   -9.5266    1.1561    0.0000 H   0  0  0  0  0  0  0  0  0  0  0  0
   -9.6260   -0.9174    0.0000 C   0  0  0  0  0  0  0  0  0 40  0  0
  -12.1139   -1.1789    0.0000 H   0  0  0  0  0  0  0  0  0  0  0  0
  -13.3265    2.4735    0.0000 C   0  0  0  0  0  0  0  0  0 34  0  0
  -13.2131   -0.1221    0.0000 C   0  0  0  0  0  0  0  0  0 35  0  0
   -9.5606   -2.4160    0.0000 O   0  0  0  0  0  0  0  0  0  2  0  0
   -8.3609   -0.1114    0.0000 O   0  0  0  0  0  0  0  0  0 13  0  0
  -14.8250    2.4080    0.0000 C   0  0  0  0  0  0  0  0  0 30  0  0
  -12.6339    3.8040    0.0000 H   0  0  0  0  0  0  0  0  0  0  0  0
  -14.7117   -0.1876    0.0000 C   0  0  0  0  0  0  0  0  0 31  0  0
  -12.5674   -1.4760    0.0000 H   0  0  0  0  0  0  0  0  0  0  0  0
   -7.0304   -0.8041    0.0000 C   0  0  0  0  0  0  0  0  0 56  0  0
  -15.5177    1.0775    0.0000 C   0  0  0  0  0  0  0  0  0 27  0  0
  -15.6310    3.6731    0.0000 H   0  0  0  0  0  0  0  0  0  0  0  0
  -15.4043   -1.5181    0.0000 H   0  0  0  0  0  0  0  0  0  0  0  0
   -6.3378    0.5265    0.0000 C   0  0  0  0  0  0  0  0  0 20  0  0
   -7.7230   -2.1346    0.0000 C   0  0  0  0  0  0  0  0  0 21  0  0
   -5.6999   -1.4967    0.0000 C   0  0  0  0  0  0  0  0  0 22  0  0
  -17.0162    1.0121    0.0000 H   0  0  0  0  0  0  0  0  0  0  0  0
   -4.8792    0.1764    0.0000 H   0  0  0  0  0  0  0  0  0  0  0  0
   -7.6683    1.2191    0.0000 H   0  0  0  0  0  0  0  0  0  0  0  0
   -5.4881    1.7626    0.0000 H   0  0  0  0  0  0  0  0  0  0  0  0
   -6.5996   -3.1286    0.0000 H   0  0  0  0  0  0  0  0  0  0  0  0
   -9.2134   -1.9649    0.0000 H   0  0  0  0  0  0  0  0  0  0  0  0
   -8.5727   -3.3707    0.0000 H   0  0  0  0  0  0  0  0  0  0  0  0
   -6.3925   -2.8272    0.0000 H   0  0  0  0  0  0  0  0  0  0  0  0
   -5.0073   -0.1662    0.0000 H   0  0  0  0  0  0  0  0  0  0  0  0
   -4.2949   -2.0220    0.0000 H   0  0  0  0  0  0  0  0  0  0  0  0
   -2.0636   -5.4860    0.0000 H   0  0  0  0  0  0  0  0  0  0  0  0
  1  2  1  0
  3  1  1  0
  1  4  1  0
  1  5  1  1
  6  3  1  0
  3  7  1  0
  3  8  1  0
  4  9  1  6
  4 10  1  0
 11  4  1  0
 12  6  1  0
  6 13  1  0
  6 14  1  1
  9 15  1  0
  9 16  1  0
  9 17  1  0
 10 18  2  0
 10 19  1  0
 20 11  1  0
 11 13  1  0
 11 21  1  1
 22 12  1  0
 13 23  1  1
 13 22  1  0
 19 24  1  0
 19 25  1  0
 19 26  1  1
 27 20  1  0
 20 28  1  0
 20 29  1  6
 22 30  1  0
 22 31  1  0
 32 23  1  0
 24 33  1  0
 25 34  2  0
 35 25  1  0
 36 27  1  0
 27 37  1  6
 27 35  1  0
 28 38  1  0
 39 32  2  0
 32 40  1  0
 33 41  1  0
 33 42  1  0
 33 43  1  0
 34 44  1  0
 34 45  1  0
 35 46  1  0
 35 47  1  0
 45 36  1  0
 36 48  1  0
 36 49  1  0
 37 50  1  0
 38 51  2  0
 38 52  1  0
 40 53  1  0
 40 54  1  0
 40 55  1  0
 44 56  1  0
 44 57  1  0
 44 58  1  0
 45 59  1  0
 45 60  1  6
 46 61  1  0
 46 62  1  0
 46 63  1  0
 47 64  1  0
 47 65  1  0
 47 66  1  0
 52 67  2  0
 68 52  1  0
 59 69  1  0
 67 70  1  0
 67 71  1  0
 72 68  2  0
 68 73  1  0
 69 74  2  0
 69 75  1  0
 70 76  2  0
 70 77  1  0
 76 72  1  0
 72 78  1  0
 75 79  1  0
 75 80  1  0
 75 81  1  6
 76 82  1  0
 79 83  1  0
 80 84  1  0
 80 85  1  0
 80 86  1  6
 84 87  1  0
 84 88  1  0
 85 89  2  0
 90 85  1  0
 87 91  2  0
 87 92  1  0
 89 93  1  0
 89 94  1  0
 95 90  2  0
 90 96  1  0
 92 97  1  0
 93 98  2  0
 93 99  1  0
 98 95  1  0
 95100  1  0
 97101  1  0
 97102  1  0
 97103  1  0
 98104  1  0
101105  1  0
101106  1  0
101107  1  0
102108  1  0
102109  1  0
102110  1  0
103111  1  0
103112  1  0
103113  1  0
  2114  1  0
M  END
>  <SMILES>  (2) 
COC1C(=O)C2(C)C(O)CC3OCC3(OC(C)=O)C2C(OC(=O)c2ccccc2)C2(O)CC(OC(=O)C(O)C(NC(=O)OC(C)(C)C)c3ccccc3)C(C)=C1C2(C)C

>  <Molecular Weight>  (2) 
821.9

>  <Substrate_ID>  (2) 
MOL0027

>  <Substrate>  (2) 


>  <Substrate_SMILES>  (2) 
COC1C(=O)C2(C)C(OC)CC3OCC3(OC(C)=O)C2C(OC(=O)c2ccccc2)C2(O)CC(OC(=O)C(O)C(NC(=O)OC(C)(C)C)c3ccccc3)C(C)=C1C2(C)C

>  <Reaction>  (2) 
O-demethylation

>  <Score>  (2) 
0.3193

>  <Reaction_Score>  (2) 
0.3093

>  <Bond_Score>  (2) 
0.3295

>  <Rank>  (2) 
2

>  <Subtype>  (2) 
REACTION

>  <Subtype_Scores>  (2) 
[REACTION] SOM_score: 0.3295, Reaction_score: 0.3093, Score: 0.3193


$$$$

     RDKit          2D

114119  0  0  0  0  0  0  0  0999 V2000
   -2.1989   -5.6457    0.0000 C   0  0  0  0  0  0  0  0  0 48  0  0
   -3.6989   -5.6457    0.0000 O   0  0  0  0  0  0  0  0  0  8  0  0
   -2.5871   -4.1968    0.0000 C   0  0  0  0  0  0  0  0  0 43  0  0
   -0.8999   -6.3957    0.0000 C   0  0  0  0  0  0  0  0  0 45  0  0
   -2.5871   -7.0946    0.0000 H   0  0  0  0  0  0  0  0  0  0  0  0
   -1.8371   -2.8978    0.0000 C   0  0  0  0  0  0  0  0  0 59  0  0
   -4.0743   -4.0010    0.0000 O   0  0  0  0  0  0  0  0  0  5  0  0
    0.1510   -7.4801    0.0000 C   0  0  0  0  0  0  0  0  0 44  0  0
    0.5490   -6.0075    0.0000 C   0  0  0  0  0  0  0  0  0 57  0  0
   -2.8978   -1.8371    0.0000 C   0  0  0  0  0  0  0  0  0 50  0  0
   -1.6413   -1.4106    0.0000 C   0  0  0  0  0  0  0  0  0 25  0  0
   -0.3882   -2.5095    0.0000 C   0  0  0  0  0  0  0  0  0 51  0  0
   -0.4230   -8.8659    0.0000 C   0  0  0  0  0  0  0  0  0 19  0  0
    1.6382   -7.2843    0.0000 C   0  0  0  0  0  0  0  0  0 49  0  0
    1.2990   -4.7084    0.0000 C   0  0  0  0  0  0  0  0  0 60  0  0
    1.9979   -6.3957    0.0000 C   0  0  0  0  0  0  0  0  0 23  0  0
    0.5490   -7.5075    0.0000 C   0  0  0  0  0  0  0  0  0 24  0  0
   -2.5095   -0.3882    0.0000 C   0  0  0  0  0  0  0  0  0 36  0  0
   -3.7581   -3.0658    0.0000 O   0  0  0  0  0  0  0  0  0 10  0  0
   -4.1698   -1.0422    0.0000 H   0  0  0  0  0  0  0  0  0  0  0  0
   -3.0369   -0.8608    0.0000 H   0  0  0  0  0  0  0  0  0  0  0  0
   -0.1510   -1.2407    0.0000 H   0  0  0  0  0  0  0  0  0  0  0  0
   -1.4455    0.0766    0.0000 H   0  0  0  0  0  0  0  0  0  0  0  0
    0.9108   -3.2595    0.0000 C   0  0  0  0  0  0  0  0  0 55  0  0
   -0.0000   -1.0607    0.0000 C   0  0  0  0  0  0  0  0  0 58  0  0
    0.9173   -1.7709    0.0000 H   0  0  0  0  0  0  0  0  0  0  0  0
   -1.7286   -8.1272    0.0000 H   0  0  0  0  0  0  0  0  0  0  0  0
    0.5310  -10.0234    0.0000 H   0  0  0  0  0  0  0  0  0  0  0  0
   -1.3153  -10.0716    0.0000 H   0  0  0  0  0  0  0  0  0  0  0  0
    1.5727   -8.7829    0.0000 O   0  0  0  0  0  0  0  0  0  9  0  0
    2.2122   -5.8985    0.0000 C   0  0  0  0  0  0  0  0  0 38  0  0
    3.0521   -7.7850    0.0000 H   0  0  0  0  0  0  0  0  0  0  0  0
    2.7862   -4.9042    0.0000 O   0  0  0  0  0  0  0  0  0  7  0  0
    2.1548   -7.8875    0.0000 H   0  0  0  0  0  0  0  0  0  0  0  0
    2.8797   -5.1823    0.0000 H   0  0  0  0  0  0  0  0  0  0  0  0
    3.4594   -6.0581    0.0000 H   0  0  0  0  0  0  0  0  0  0  0  0
   -0.9510   -7.5075    0.0000 H   0  0  0  0  0  0  0  0  0  0  0  0
    1.9494   -8.0451    0.0000 H   0  0  0  0  0  0  0  0  0  0  0  0
    0.3662   -8.9963    0.0000 H   0  0  0  0  0  0  0  0  0  0  0  0
   -1.0607    0.0000    0.0000 C   0  0  0  0  0  0  0  0  0 54  0  0
   -2.8215    1.0790    0.0000 H   0  0  0  0  0  0  0  0  0  0  0  0
   -4.0038   -0.2575    0.0000 H   0  0  0  0  0  0  0  0  0  0  0  0
   -5.2524   -2.9351    0.0000 C   0  0  0  0  0  0  0  0  0 17  0  0
    2.4108   -3.2595    0.0000 O   0  0  0  0  0  0  0  0  0 12  0  0
    1.4728   -1.8688    0.0000 H   0  0  0  0  0  0  0  0  0  0  0  0
   -0.7500    0.2384    0.0000 O   0  0  0  0  0  0  0  0  0 14  0  0
    1.0607    0.0000    0.0000 C   0  0  0  0  0  0  0  0  0 37  0  0
    0.2422   -9.4755    0.0000 C   0  0  0  0  0  0  0  0  0 42  0  0
    3.0832   -4.6773    0.0000 H   0  0  0  0  0  0  0  0  0  0  0  0
    3.3696   -6.8526    0.0000 H   0  0  0  0  0  0  0  0  0  0  0  0
    3.6993   -3.7142    0.0000 H   0  0  0  0  0  0  0  0  0  0  0  0
    0.0000    1.0607    0.0000 O   0  0  0  0  0  0  0  0  0 11  0  0
   -1.8107    1.2990    0.0000 H   0  0  0  0  0  0  0  0  0  0  0  0
   -5.3832   -4.4294    0.0000 H   0  0  0  0  0  0  0  0  0  0  0  0
   -5.3048   -1.4360    0.0000 H   0  0  0  0  0  0  0  0  0  0  0  0
   -6.7467   -2.8044    0.0000 H   0  0  0  0  0  0  0  0  0  0  0  0
    3.1608   -1.9605    0.0000 C   0  0  0  0  0  0  0  0  0 41  0  0
    0.0000    1.5374    0.0000 C   0  0  0  0  0  0  0  0  0 39  0  0
    2.2427    0.9235    0.0000 H   0  0  0  0  0  0  0  0  0  0  0  0
    2.2427   -0.9235    0.0000 H   0  0  0  0  0  0  0  0  0  0  0  0
   -1.2277   -9.1765    0.0000 O   0  0  0  0  0  0  0  0  0  4  0  0
    0.1768  -10.9741    0.0000 C   0  0  0  0  0  0  0  0  0 52  0  0
    2.5748   -0.5797    0.0000 O   0  0  0  0  0  0  0  0  0  3  0  0
    4.6608   -1.9605    0.0000 C   0  0  0  0  0  0  0  0  0 46  0  0
    1.4888    1.7203    0.0000 O   0  0  0  0  0  0  0  0  0  1  0  0
   -0.7500    2.8365    0.0000 C   0  0  0  0  0  0  0  0  0 18  0  0
   -1.3218  -10.9086    0.0000 O   0  0  0  0  0  0  0  0  0  6  0  0
    1.6754  -11.0395    0.0000 C   0  0  0  0  0  0  0  0  0 53  0  0
   -0.2493  -12.4123    0.0000 H   0  0  0  0  0  0  0  0  0  0  0  0
    5.4108   -3.2595    0.0000 C   0  0  0  0  0  0  0  0  0 32  0  0
    5.4108   -0.6615    0.0000 C   0  0  0  0  0  0  0  0  0 33  0  0
    0.5490    3.5865    0.0000 H   0  0  0  0  0  0  0  0  0  0  0  0
   -2.1308    2.2504    0.0000 H   0  0  0  0  0  0  0  0  0  0  0  0
   -1.5000    4.1355    0.0000 H   0  0  0  0  0  0  0  0  0  0  0  0
   -2.1277  -12.1737    0.0000 H   0  0  0  0  0  0  0  0  0  0  0  0
    3.1739  -11.1049    0.0000 N   0  0  0  0  0  0  0  0  0 15  0  0
    1.6099  -12.5381    0.0000 C   0  0  0  0  0  0  0  0  0 47  0  0
    2.2736   -9.6639    0.0000 H   0  0  0  0  0  0  0  0  0  0  0  0
    6.9108   -3.2595    0.0000 C   0  0  0  0  0  0  0  0  0 28  0  0
    4.6608   -4.5586    0.0000 H   0  0  0  0  0  0  0  0  0  0  0  0
    6.9108   -0.6615    0.0000 C   0  0  0  0  0  0  0  0  0 29  0  0
    4.6608    0.6376    0.0000 H   0  0  0  0  0  0  0  0  0  0  0  0
    3.9799   -9.8398    0.0000 C   0  0  0  0  0  0  0  0  0 40  0  0
    4.0236  -12.3411    0.0000 H   0  0  0  0  0  0  0  0  0  0  0  0
    0.2794  -13.2307    0.0000 C   0  0  0  0  0  0  0  0  0 34  0  0
    2.8750  -13.3440    0.0000 C   0  0  0  0  0  0  0  0  0 35  0  0
    7.6608   -1.9605    0.0000 C   0  0  0  0  0  0  0  0  0 26  0  0
    7.6608   -4.5586    0.0000 H   0  0  0  0  0  0  0  0  0  0  0  0
    7.6608    0.6376    0.0000 H   0  0  0  0  0  0  0  0  0  0  0  0
    5.4784   -9.9053    0.0000 O   0  0  0  0  0  0  0  0  0  2  0  0
    3.2873   -8.5093    0.0000 O   0  0  0  0  0  0  0  0  0 13  0  0
    0.2140  -14.7293    0.0000 C   0  0  0  0  0  0  0  0  0 30  0  0
   -0.9857  -12.4247    0.0000 H   0  0  0  0  0  0  0  0  0  0  0  0
    2.8096  -14.8426    0.0000 C   0  0  0  0  0  0  0  0  0 31  0  0
    4.2800  -12.8187    0.0000 H   0  0  0  0  0  0  0  0  0  0  0  0
    9.1608   -1.9605    0.0000 H   0  0  0  0  0  0  0  0  0  0  0  0
    4.0932   -7.2442    0.0000 C   0  0  0  0  0  0  0  0  0 56  0  0
    1.4791  -15.5352    0.0000 C   0  0  0  0  0  0  0  0  0 27  0  0
   -1.1165  -15.4219    0.0000 H   0  0  0  0  0  0  0  0  0  0  0  0
    4.0747  -15.6485    0.0000 H   0  0  0  0  0  0  0  0  0  0  0  0
    2.8281   -6.4383    0.0000 C   0  0  0  0  0  0  0  0  0 20  0  0
    5.3583   -8.0502    0.0000 C   0  0  0  0  0  0  0  0  0 21  0  0
    4.8992   -5.9791    0.0000 C   0  0  0  0  0  0  0  0  0 22  0  0
    1.4136  -17.0338    0.0000 H   0  0  0  0  0  0  0  0  0  0  0  0
    4.1337   -5.6998    0.0000 H   0  0  0  0  0  0  0  0  0  0  0  0
    3.9162   -5.4058    0.0000 H   0  0  0  0  0  0  0  0  0  0  0  0
    1.7956   -5.3502    0.0000 H   0  0  0  0  0  0  0  0  0  0  0  0
    6.4464   -7.0177    0.0000 H   0  0  0  0  0  0  0  0  0  0  0  0
    4.8824   -9.4727    0.0000 H   0  0  0  0  0  0  0  0  0  0  0  0
    6.6234   -8.8561    0.0000 H   0  0  0  0  0  0  0  0  0  0  0  0
    6.1642   -6.7851    0.0000 H   0  0  0  0  0  0  0  0  0  0  0  0
    6.3217   -6.4550    0.0000 H   0  0  0  0  0  0  0  0  0  0  0  0
    5.7051   -4.7140    0.0000 H   0  0  0  0  0  0  0  0  0  0  0  0
   -4.4489   -6.9447    0.0000 H   0  0  0  0  0  0  0  0  0  0  0  0
  1  2  1  0
  3  1  1  0
  1  4  1  0
  1  5  1  6
  6  3  1  0
  3  7  2  0
  4  8  2  0
  9  4  1  0
 10  6  1  0
  6 11  1  1
 12  6  1  0
  8 13  1  0
  8 14  1  0
 15  9  1  0
  9 16  1  0
  9 17  1  0
 18 10  1  0
 10 19  1  0
 10 20  1  6
 11 21  1  0
 11 22  1  0
 11 23  1  0
 24 12  1  0
 12 25  1  0
 12 26  1  6
 13 27  1  0
 13 28  1  0
 13 29  1  0
 14 30  1  0
 14 31  1  0
 14 32  1  1
 31 15  1  0
 15 33  1  1
 15 24  1  0
 16 34  1  0
 16 35  1  0
 16 36  1  0
 17 37  1  0
 17 38  1  0
 17 39  1  0
 40 18  1  0
 18 41  1  0
 18 42  1  0
 19 43  1  0
 24 44  1  0
 24 45  1  1
 25 46  1  6
 25 47  1  0
 40 25  1  0
 30 48  1  0
 31 49  1  0
 31 50  1  0
 33 51  1  0
 52 40  1  0
 40 53  1  6
 43 54  1  0
 43 55  1  0
 43 56  1  0
 44 57  1  0
 58 46  1  0
 47 52  1  0
 47 59  1  0
 47 60  1  0
 48 61  2  0
 48 62  1  0
 57 63  2  0
 57 64  1  0
 65 58  2  0
 58 66  1  0
 62 67  1  0
 62 68  1  0
 62 69  1  6
 64 70  2  0
 71 64  1  0
 66 72  1  0
 66 73  1  0
 66 74  1  0
 67 75  1  0
 68 76  1  0
 68 77  1  0
 68 78  1  6
 70 79  1  0
 70 80  1  0
 81 71  2  0
 71 82  1  0
 76 83  1  0
 76 84  1  0
 77 85  2  0
 86 77  1  0
 79 87  2  0
 79 88  1  0
 87 81  1  0
 81 89  1  0
 83 90  2  0
 83 91  1  0
 85 92  1  0
 85 93  1  0
 94 86  2  0
 86 95  1  0
 87 96  1  0
 91 97  1  0
 92 98  2  0
 92 99  1  0
 98 94  1  0
 94100  1  0
 97101  1  0
 97102  1  0
 97103  1  0
 98104  1  0
101105  1  0
101106  1  0
101107  1  0
102108  1  0
102109  1  0
102110  1  0
103111  1  0
103112  1  0
103113  1  0
  2114  1  0
M  END
>  <SMILES>  (3) 
COC1CC2OCC2(OC(C)=O)C2C(OC(=O)c3ccccc3)C3(O)CC(OC(=O)C(O)C(NC(=O)OC(C)(C)C)c4ccccc4)C(C)=C(C(O)C(=O)C12C)C3(C)C

>  <Molecular Weight>  (3) 
821.9

>  <Substrate_ID>  (3) 
MOL0027

>  <Substrate>  (3) 


>  <Substrate_SMILES>  (3) 
COC1C(=O)C2(C)C(OC)CC3OCC3(OC(C)=O)C2C(OC(=O)c2ccccc2)C2(O)CC(OC(=O)C(O)C(NC(=O)OC(C)(C)C)c3ccccc3)C(C)=C1C2(C)C

>  <Reaction>  (3) 
O-demethylation

>  <Score>  (3) 
0.3026

>  <Reaction_Score>  (3) 
0.2961

>  <Bond_Score>  (3) 
0.3093

>  <Rank>  (3) 
3

>  <Subtype>  (3) 
REACTION

>  <Subtype_Scores>  (3) 
[REACTION] SOM_score: 0.3093, Reaction_score: 0.2961, Score: 0.3026


$$$$
