
     RDKit          2D

 39 40  0  0  0  0  0  0  0  0999 V2000
    3.7500   -1.2990    0.0000 C   0  0  0  0  0  0  0  0  0 14  0  0
    2.4510   -2.0490    0.0000 O   0  0  0  0  0  0  0  0  0 23  0  0
    2.4510   -3.5490    0.0000 H   0  0  0  0  0  0  0  0  0  0  0  0
    3.0000    0.0000    0.0000 O   0  0  0  0  0  0  0  0  0  4  0  0
    5.0490   -0.5490    0.0000 C   0  0  0  0  0  0  0  0  0 22  0  0
    4.0961   -2.1144    0.0000 H   0  0  0  0  0  0  0  0  0  0  0  0
    1.5000    0.0000    0.0000 C   0  0  0  0  0  0  0  0  0 19  0  0
    6.3481    0.2010    0.0000 C   0  0  0  0  0  0  0  0  0  8  0  0
    5.7990   -1.8481    0.0000 C   0  0  0  0  0  0  0  0  0  9  0  0
    4.2990    0.7500    0.0000 H   0  0  0  0  0  0  0  0  0  0  0  0
    0.7500   -1.2990    0.0000 C   0  0  0  0  0  0  0  0  0 13  0  0
    0.7500    1.2990    0.0000 C   0  0  0  0  0  0  0  0  0 18  0  0
    7.6471    0.9510    0.0000 H   0  0  0  0  0  0  0  0  0  0  0  0
    6.8811   -0.5064    0.0000 H   0  0  0  0  0  0  0  0  0  0  0  0
    5.5981    1.5000    0.0000 H   0  0  0  0  0  0  0  0  0  0  0  0
    6.5490   -3.1471    0.0000 H   0  0  0  0  0  0  0  0  0  0  0  0
    6.6144   -1.5020    0.0000 H   0  0  0  0  0  0  0  0  0  0  0  0
    5.0917   -2.3811    0.0000 H   0  0  0  0  0  0  0  0  0  0  0  0
   -0.7500   -1.2990    0.0000 C   0  0  0  0  0  0  0  0  0 11  0  0
    1.5000   -2.5981    0.0000 H   0  0  0  0  0  0  0  0  0  0  0  0
    1.5000    2.5981    0.0000 C   0  0  0  0  0  0  0  0  0 10  0  0
   -0.7500    1.2990    0.0000 C   0  0  0  0  0  0  0  0  0 12  0  0
   -1.5000    0.0000    0.0000 C   0  0  0  0  0  0  0  0  0 16  0  0
   -1.5000   -2.5981    0.0000 H   0  0  0  0  0  0  0  0  0  0  0  0
    2.2500    3.8971    0.0000 N   0  0  0  0  0  0  0  0  0  5  0  0
   -1.5000    2.5981    0.0000 H   0  0  0  0  0  0  0  0  0  0  0  0
   -3.0000    0.0000    0.0000 C   0  0  0  0  0  0  0  0  0 17  0  0
   -3.8817   -1.2135    0.0000 S   0  0  0  0  0  0  0  0  0  1  0  0
   -3.8817    1.2135    0.0000 N   0  0  0  0  0  0  0  0  0  6  0  0
   -5.3083   -0.7500    0.0000 C   0  0  0  0  0  0  0  0  0 21  0  0
   -5.3083    0.7500    0.0000 C   0  0  0  0  0  0  0  0  0 20  0  0
   -6.5218   -1.6317    0.0000 C   0  0  0  0  0  0  0  0  0 15  0  0
   -6.5218    1.6317    0.0000 C   0  0  0  0  0  0  0  0  0  7  0  0
   -7.8921   -1.0216    0.0000 O   0  0  0  0  0  0  0  0  0  2  0  0
   -6.3650   -3.1235    0.0000 O   0  0  0  0  0  0  0  0  0  3  0  0
   -7.7353    2.5134    0.0000 H   0  0  0  0  0  0  0  0  0  0  0  0
   -5.6401    2.8452    0.0000 H   0  0  0  0  0  0  0  0  0  0  0  0
   -7.4035    0.4182    0.0000 H   0  0  0  0  0  0  0  0  0  0  0  0
   -7.5785   -4.0051    0.0000 H   0  0  0  0  0  0  0  0  0  0  0  0
  1  2  1  0
  2  3  1  0
  4  1  1  0
  1  5  1  0
  1  6  1  0
  7  4  1  0
  5  8  1  0
  5  9  1  0
  5 10  1  0
 11  7  2  0
  7 12  1  0
  8 13  1  0
  8 14  1  0
  8 15  1  0
  9 16  1  0
  9 17  1  0
  9 18  1  0
 19 11  1  0
 11 20  1  0
 12 21  1  0
 12 22  2  0
 23 19  2  0
 19 24  1  0
 21 25  3  0
 22 23  1  0
 22 26  1  0
 27 23  1  0
 28 27  1  0
 27 29  2  0
 30 28  1  0
 29 31  1  0
 31 30  2  0
 30 32  1  0
 31 33  1  0
 32 34  2  0
 32 35  1  0
 33 36  1  0
 33 37  1  0
 33 38  1  0
 35 39  1  0
M  END
>  <SMILES>  (1) 
Cc1nc(-c2ccc(OC(O)C(C)C)c(C#N)c2)sc1C(=O)O

>  <Molecular Weight>  (1) 
332.4

>  <Substrate_ID>  (1) 
MOL0020

>  <Substrate>  (1) 


>  <Substrate_SMILES>  (1) 
Cc1nc(-c2ccc(OCC(C)C)c(C#N)c2)sc1C(=O)O

>  <Reaction>  (1) 
aliphatic hydroxylation

>  <Score>  (1) 
0.2023

>  <Reaction_Score>  (1) 
0.1195

>  <Bond_Score>  (1) 
0.3425

>  <Rank>  (1) 
1

>  <Subtype>  (1) 
REACTION

>  <Subtype_Scores>  (1) 
[REACTION] SOM_score: 0.3425, Reaction_score: 0.1195, Score: 0.2023


$$$$

     RDKit          2D

 39 40  0  0  0  0  0  0  0  0999 V2000
    4.5000   -2.5981    0.0000 C   0  0  0  0  0  0  0  0  0 22  0  0
    5.2500   -3.8971    0.0000 C   0  0  0  0  0  0  0  0  0  8  0  0
    6.0000   -5.1962    0.0000 O   0  0  0  0  0  0  0  0  0 23  0  0
    3.7500   -1.2990    0.0000 C   0  0  0  0  0  0  0  0  0 14  0  0
    5.7990   -1.8481    0.0000 C   0  0  0  0  0  0  0  0  0  9  0  0
    3.2010   -3.3481    0.0000 H   0  0  0  0  0  0  0  0  0  0  0  0
    3.0000    0.0000    0.0000 O   0  0  0  0  0  0  0  0  0  4  0  0
    2.4510   -2.0490    0.0000 H   0  0  0  0  0  0  0  0  0  0  0  0
    4.4574   -0.7660    0.0000 H   0  0  0  0  0  0  0  0  0  0  0  0
    7.0981   -1.0981    0.0000 H   0  0  0  0  0  0  0  0  0  0  0  0
    6.3321   -2.5554    0.0000 H   0  0  0  0  0  0  0  0  0  0  0  0
    5.4530   -1.0327    0.0000 H   0  0  0  0  0  0  0  0  0  0  0  0
    1.5000    0.0000    0.0000 C   0  0  0  0  0  0  0  0  0 19  0  0
    0.7500   -1.2990    0.0000 C   0  0  0  0  0  0  0  0  0 13  0  0
    0.7500    1.2990    0.0000 C   0  0  0  0  0  0  0  0  0 18  0  0
   -0.7500   -1.2990    0.0000 C   0  0  0  0  0  0  0  0  0 11  0  0
    1.5000   -2.5981    0.0000 H   0  0  0  0  0  0  0  0  0  0  0  0
    1.5000    2.5981    0.0000 C   0  0  0  0  0  0  0  0  0 10  0  0
   -0.7500    1.2990    0.0000 C   0  0  0  0  0  0  0  0  0 12  0  0
   -1.5000    0.0000    0.0000 C   0  0  0  0  0  0  0  0  0 16  0  0
   -1.5000   -2.5981    0.0000 H   0  0  0  0  0  0  0  0  0  0  0  0
    2.2500    3.8971    0.0000 N   0  0  0  0  0  0  0  0  0  5  0  0
   -1.5000    2.5981    0.0000 H   0  0  0  0  0  0  0  0  0  0  0  0
   -3.0000    0.0000    0.0000 C   0  0  0  0  0  0  0  0  0 17  0  0
   -3.8817   -1.2135    0.0000 S   0  0  0  0  0  0  0  0  0  1  0  0
   -3.8817    1.2135    0.0000 N   0  0  0  0  0  0  0  0  0  6  0  0
   -5.3083   -0.7500    0.0000 C   0  0  0  0  0  0  0  0  0 21  0  0
   -5.3083    0.7500    0.0000 C   0  0  0  0  0  0  0  0  0 20  0  0
   -6.5218   -1.6317    0.0000 C   0  0  0  0  0  0  0  0  0 15  0  0
   -6.5218    1.6317    0.0000 C   0  0  0  0  0  0  0  0  0  7  0  0
   -7.8921   -1.0216    0.0000 O   0  0  0  0  0  0  0  0  0  2  0  0
   -6.3650   -3.1235    0.0000 O   0  0  0  0  0  0  0  0  0  3  0  0
   -7.7353    2.5134    0.0000 H   0  0  0  0  0  0  0  0  0  0  0  0
   -5.6401    2.8452    0.0000 H   0  0  0  0  0  0  0  0  0  0  0  0
   -7.4035    0.4182    0.0000 H   0  0  0  0  0  0  0  0  0  0  0  0
   -7.5785   -4.0051    0.0000 H   0  0  0  0  0  0  0  0  0  0  0  0
    6.0653   -3.5511    0.0000 H   0  0  0  0  0  0  0  0  0  0  0  0
    3.9510   -4.6471    0.0000 H   0  0  0  0  0  0  0  0  0  0  0  0
    5.2500   -6.4952    0.0000 H   0  0  0  0  0  0  0  0  0  0  0  0
  1  2  1  0
  2  3  1  0
  4  1  1  0
  1  5  1  0
  1  6  1  0
  7  4  1  0
  4  8  1  0
  4  9  1  0
  5 10  1  0
  5 11  1  0
  5 12  1  0
 13  7  1  0
 14 13  2  0
 13 15  1  0
 16 14  1  0
 14 17  1  0
 15 18  1  0
 15 19  2  0
 20 16  2  0
 16 21  1  0
 18 22  3  0
 19 20  1  0
 19 23  1  0
 24 20  1  0
 25 24  1  0
 24 26  2  0
 27 25  1  0
 26 28  1  0
 28 27  2  0
 27 29  1  0
 28 30  1  0
 29 31  2  0
 29 32  1  0
 30 33  1  0
 30 34  1  0
 30 35  1  0
 32 36  1  0
  2 37  1  0
  2 38  1  0
  3 39  1  0
M  END
>  <SMILES>  (2) 
Cc1nc(-c2ccc(OCC(C)CO)c(C#N)c2)sc1C(=O)O

>  <Molecular Weight>  (2) 
332.4

>  <Substrate_ID>  (2) 
MOL0020

>  <Substrate>  (2) 


>  <Substrate_SMILES>  (2) 
Cc1nc(-c2ccc(OCC(C)C)c(C#N)c2)sc1C(=O)O

>  <Reaction>  (2) 
aliphatic_hydroxylation_(primary_carbon_next_to_tert_carbon),aliphatic hydroxylation

>  <Score>  (2) 
0.1951

>  <Reaction_Score>  (2) 
0.1911

>  <Bond_Score>  (2) 
0.1993

>  <Rank>  (2) 
2

>  <Subtype>  (2) 
REACTION

>  <Subtype_Scores>  (2) 
[REACTION] SOM_score: 0.1993, Reaction_score: 0.1911, Score: 0.1951


$$$$

     RDKit          2D

 39 40  0  0  0  0  0  0  0  0999 V2000
    5.7990   -1.8481    0.0000 C   0  0  0  0  0  0  0  0  0  8  0  0
    4.5000   -2.5981    0.0000 C   0  0  0  0  0  0  0  0  0 22  0  0
    5.2500   -3.8971    0.0000 O   0  0  0  0  0  0  0  0  0 23  0  0
    3.2010   -3.3481    0.0000 C   0  0  0  0  0  0  0  0  0  9  0  0
    3.7500   -1.2990    0.0000 C   0  0  0  0  0  0  0  0  0 14  0  0
    3.0000    0.0000    0.0000 O   0  0  0  0  0  0  0  0  0  4  0  0
    2.9347   -1.6451    0.0000 H   0  0  0  0  0  0  0  0  0  0  0  0
    4.4574   -0.7660    0.0000 H   0  0  0  0  0  0  0  0  0  0  0  0
    1.5000    0.0000    0.0000 C   0  0  0  0  0  0  0  0  0 19  0  0
    0.7500   -1.2990    0.0000 C   0  0  0  0  0  0  0  0  0 13  0  0
    0.7500    1.2990    0.0000 C   0  0  0  0  0  0  0  0  0 18  0  0
   -0.7500   -1.2990    0.0000 C   0  0  0  0  0  0  0  0  0 11  0  0
    1.5000   -2.5981    0.0000 H   0  0  0  0  0  0  0  0  0  0  0  0
    1.5000    2.5981    0.0000 C   0  0  0  0  0  0  0  0  0 10  0  0
   -0.7500    1.2990    0.0000 C   0  0  0  0  0  0  0  0  0 12  0  0
   -1.5000    0.0000    0.0000 C   0  0  0  0  0  0  0  0  0 16  0  0
   -1.5000   -2.5981    0.0000 H   0  0  0  0  0  0  0  0  0  0  0  0
    2.2500    3.8971    0.0000 N   0  0  0  0  0  0  0  0  0  5  0  0
   -1.5000    2.5981    0.0000 H   0  0  0  0  0  0  0  0  0  0  0  0
   -3.0000    0.0000    0.0000 C   0  0  0  0  0  0  0  0  0 17  0  0
   -3.8817   -1.2135    0.0000 S   0  0  0  0  0  0  0  0  0  1  0  0
   -3.8817    1.2135    0.0000 N   0  0  0  0  0  0  0  0  0  6  0  0
   -5.3083   -0.7500    0.0000 C   0  0  0  0  0  0  0  0  0 21  0  0
   -5.3083    0.7500    0.0000 C   0  0  0  0  0  0  0  0  0 20  0  0
   -6.5218   -1.6317    0.0000 C   0  0  0  0  0  0  0  0  0 15  0  0
   -6.5218    1.6317    0.0000 C   0  0  0  0  0  0  0  0  0  7  0  0
   -7.8921   -1.0216    0.0000 O   0  0  0  0  0  0  0  0  0  2  0  0
   -6.3650   -3.1235    0.0000 O   0  0  0  0  0  0  0  0  0  3  0  0
   -7.7353    2.5134    0.0000 H   0  0  0  0  0  0  0  0  0  0  0  0
   -5.6401    2.8452    0.0000 H   0  0  0  0  0  0  0  0  0  0  0  0
   -7.4035    0.4182    0.0000 H   0  0  0  0  0  0  0  0  0  0  0  0
   -7.5785   -4.0051    0.0000 H   0  0  0  0  0  0  0  0  0  0  0  0
    7.0981   -1.0981    0.0000 H   0  0  0  0  0  0  0  0  0  0  0  0
    6.7018   -3.0460    0.0000 H   0  0  0  0  0  0  0  0  0  0  0  0
    5.4530   -1.0327    0.0000 H   0  0  0  0  0  0  0  0  0  0  0  0
    6.7388   -4.0800    0.0000 H   0  0  0  0  0  0  0  0  0  0  0  0
    1.9019   -4.0981    0.0000 H   0  0  0  0  0  0  0  0  0  0  0  0
    3.9510   -4.6471    0.0000 H   0  0  0  0  0  0  0  0  0  0  0  0
    2.6679   -2.6407    0.0000 H   0  0  0  0  0  0  0  0  0  0  0  0
  1  2  1  0
  2  3  1  0
  2  4  1  0
  5  2  1  0
  6  5  1  0
  5  7  1  0
  5  8  1  0
  9  6  1  0
 10  9  2  0
  9 11  1  0
 12 10  1  0
 10 13  1  0
 11 14  1  0
 11 15  2  0
 16 12  2  0
 12 17  1  0
 14 18  3  0
 15 16  1  0
 15 19  1  0
 20 16  1  0
 21 20  1  0
 20 22  2  0
 23 21  1  0
 22 24  1  0
 24 23  2  0
 23 25  1  0
 24 26  1  0
 25 27  2  0
 25 28  1  0
 26 29  1  0
 26 30  1  0
 26 31  1  0
 28 32  1  0
  1 33  1  0
  1 34  1  0
  1 35  1  0
  3 36  1  0
  4 37  1  0
  4 38  1  0
  4 39  1  0
M  END
>  <SMILES>  (3) 
Cc1nc(-c2ccc(OCC(C)(C)O)c(C#N)c2)sc1C(=O)O

>  <Molecular Weight>  (3) 
332.4

>  <Substrate_ID>  (3) 
MOL0020

>  <Substrate>  (3) 


>  <Substrate_SMILES>  (3) 
Cc1nc(-c2ccc(OCC(C)C)c(C#N)c2)sc1C(=O)O

>  <Reaction>  (3) 
aliphatic_hydroxylation_(tert_carbon_linked_to_two_CH3_groups),aliphatic hydroxylation

>  <Score>  (3) 
0.1771

>  <Reaction_Score>  (3) 
0.1743

>  <Bond_Score>  (3) 
0.18

>  <Rank>  (3) 
3

>  <Subtype>  (3) 
REACTION

>  <Subtype_Scores>  (3) 
[REACTION] SOM_score: 0.1800, Reaction_score: 0.1743, Score: 0.1771


$$$$

     RDKit          2D

 26 27  0  0  0  0  0  0  0  0999 V2000
    1.5000    0.0000    0.0000 C   0  0  0  0  0  0  0  0  0 19  0  0
    3.0000    0.0000    0.0000 O   0  0  0  0  0  0  0  0  0  4  0  0
    0.7500   -1.2990    0.0000 C   0  0  0  0  0  0  0  0  0 13  0  0
    0.7500    1.2990    0.0000 C   0  0  0  0  0  0  0  0  0 18  0  0
   -0.7500   -1.2990    0.0000 C   0  0  0  0  0  0  0  0  0 11  0  0
    1.5000   -2.5981    0.0000 H   0  0  0  0  0  0  0  0  0  0  0  0
    1.5000    2.5981    0.0000 C   0  0  0  0  0  0  0  0  0 10  0  0
   -0.7500    1.2990    0.0000 C   0  0  0  0  0  0  0  0  0 12  0  0
   -1.5000    0.0000    0.0000 C   0  0  0  0  0  0  0  0  0 16  0  0
   -1.5000   -2.5981    0.0000 H   0  0  0  0  0  0  0  0  0  0  0  0
    2.2500    3.8971    0.0000 N   0  0  0  0  0  0  0  0  0  5  0  0
   -1.5000    2.5981    0.0000 H   0  0  0  0  0  0  0  0  0  0  0  0
   -3.0000    0.0000    0.0000 C   0  0  0  0  0  0  0  0  0 17  0  0
   -3.8817   -1.2135    0.0000 S   0  0  0  0  0  0  0  0  0  1  0  0
   -3.8817    1.2135    0.0000 N   0  0  0  0  0  0  0  0  0  6  0  0
   -5.3083   -0.7500    0.0000 C   0  0  0  0  0  0  0  0  0 21  0  0
   -5.3083    0.7500    0.0000 C   0  0  0  0  0  0  0  0  0 20  0  0
   -6.5218   -1.6317    0.0000 C   0  0  0  0  0  0  0  0  0 15  0  0
   -6.5218    1.6317    0.0000 C   0  0  0  0  0  0  0  0  0  7  0  0
   -7.8921   -1.0216    0.0000 O   0  0  0  0  0  0  0  0  0  2  0  0
   -6.3650   -3.1235    0.0000 O   0  0  0  0  0  0  0  0  0  3  0  0
   -7.7353    2.5134    0.0000 H   0  0  0  0  0  0  0  0  0  0  0  0
   -5.6401    2.8452    0.0000 H   0  0  0  0  0  0  0  0  0  0  0  0
   -7.4035    0.4182    0.0000 H   0  0  0  0  0  0  0  0  0  0  0  0
   -7.5785   -4.0051    0.0000 H   0  0  0  0  0  0  0  0  0  0  0  0
    3.7500   -1.2990    0.0000 H   0  0  0  0  0  0  0  0  0  0  0  0
  1  2  1  0
  3  1  2  0
  1  4  1  0
  5  3  1  0
  3  6  1  0
  4  7  1  0
  4  8  2  0
  9  5  2  0
  5 10  1  0
  7 11  3  0
  8  9  1  0
  8 12  1  0
 13  9  1  0
 14 13  1  0
 13 15  2  0
 16 14  1  0
 15 17  1  0
 17 16  2  0
 16 18  1  0
 17 19  1  0
 18 20  2  0
 18 21  1  0
 19 22  1  0
 19 23  1  0
 19 24  1  0
 21 25  1  0
  2 26  1  0
M  END
>  <SMILES>  (4) 
Cc1nc(-c2ccc(O)c(C#N)c2)sc1C(=O)O

>  <Molecular Weight>  (4) 
260.3

>  <Substrate_ID>  (4) 
MOL0020

>  <Substrate>  (4) 


>  <Substrate_SMILES>  (4) 
Cc1nc(-c2ccc(OCC(C)C)c(C#N)c2)sc1C(=O)O

>  <Reaction>  (4) 
O-dealkylation_(aromatic)

>  <Score>  (4) 
0.1488

>  <Reaction_Score>  (4) 
0.1341

>  <Bond_Score>  (4) 
0.1651

>  <Rank>  (4) 
4

>  <Subtype>  (4) 
REACTION

>  <Subtype_Scores>  (4) 
[REACTION] SOM_score: 0.1651, Reaction_score: 0.1341, Score: 0.1488


$$$$

     RDKit          2D

 15 14  0  0  0  0  0  0  0  0999 V2000
   -1.5000    0.0000    0.0000 O   0  0  0  0  0  0  0  0  0 23  0  0
    0.0000    0.0000    0.0000 C   0  0  0  0  0  0  0  0  0 14  0  0
    1.5000    0.0000    0.0000 C   0  0  0  0  0  0  0  0  0 22  0  0
    0.0000    1.5000    0.0000 H   0  0  0  0  0  0  0  0  0  0  0  0
   -0.1080   -0.8791    0.0000 H   0  0  0  0  0  0  0  0  0  0  0  0
    3.0000    0.0000    0.0000 C   0  0  0  0  0  0  0  0  0  8  0  0
    1.5000   -1.5000    0.0000 C   0  0  0  0  0  0  0  0  0  9  0  0
    1.5000    1.5000    0.0000 H   0  0  0  0  0  0  0  0  0  0  0  0
    4.5000   -0.0000    0.0000 H   0  0  0  0  0  0  0  0  0  0  0  0
    3.1080   -0.8791    0.0000 H   0  0  0  0  0  0  0  0  0  0  0  0
    3.0000    1.5000    0.0000 H   0  0  0  0  0  0  0  0  0  0  0  0
    1.5000   -3.0000    0.0000 H   0  0  0  0  0  0  0  0  0  0  0  0
    2.3791   -1.6080    0.0000 H   0  0  0  0  0  0  0  0  0  0  0  0
    0.6209   -1.6080    0.0000 H   0  0  0  0  0  0  0  0  0  0  0  0
   -2.2500   -1.2990    0.0000 H   0  0  0  0  0  0  0  0  0  0  0  0
  1  2  1  0
  2  3  1  0
  2  4  1  0
  2  5  1  0
  3  6  1  0
  3  7  1  0
  3  8  1  0
  6  9  1  0
  6 10  1  0
  6 11  1  0
  7 12  1  0
  7 13  1  0
  7 14  1  0
  1 15  1  0
M  END
>  <SMILES>  (5) 
CC(C)CO

>  <Molecular Weight>  (5) 
74.1

>  <Substrate_ID>  (5) 
MOL0020

>  <Substrate>  (5) 


>  <Substrate_SMILES>  (5) 
Cc1nc(-c2ccc(OCC(C)C)c(C#N)c2)sc1C(=O)O

>  <Reaction>  (5) 
O-dealkylation_(aromatic)

>  <Score>  (5) 
0.1488

>  <Reaction_Score>  (5) 
0.1341

>  <Bond_Score>  (5) 
0.1651

>  <Rank>  (5) 
4

>  <Subtype>  (5) 
REACTION

>  <Subtype_Scores>  (5) 
[REACTION] SOM_score: 0.1651, Reaction_score: 0.1341, Score: 0.1488


$$$$
