
     RDKit          2D

 56 60  0  0  0  0  0  0  0  0999 V2000
   -5.2500    3.8971    0.0000 C   0  0  0  0  0  0  0  0  0 27  0  0
   -6.0000    5.1962    0.0000 C   0  0  0  0  0  0  0  0  0 10  0  0
   -6.7500    6.4952    0.0000 O   0  0  0  0  0  0  0  0  0 33  0  0
   -6.0000    2.5981    0.0000 C   0  0  0  0  0  0  0  0  0 16  0  0
   -3.7500    3.8971    0.0000 C   0  0  0  0  0  0  0  0  0 21  0  0
   -5.2500    1.2990    0.0000 C   0  0  0  0  0  0  0  0  0 20  0  0
   -7.5000    2.5981    0.0000 H   0  0  0  0  0  0  0  0  0  0  0  0
   -3.0000    2.5981    0.0000 C   0  0  0  0  0  0  0  0  0 31  0  0
   -3.0000    5.1962    0.0000 H   0  0  0  0  0  0  0  0  0  0  0  0
   -3.7500    1.2990    0.0000 C   0  0  0  0  0  0  0  0  0 30  0  0
   -6.0000   -0.0000    0.0000 H   0  0  0  0  0  0  0  0  0  0  0  0
   -1.5000    2.5981    0.0000 N   0  0  0  0  0  0  0  0  0  9  0  0
   -3.0000    0.0000    0.0000 C   0  0  0  0  0  0  0  0  0 26  0  0
   -0.6183    1.3846    0.0000 N   0  0  0  0  0  0  0  0  0  5  0  0
   -0.6183    3.8116    0.0000 N   0  0  0  0  0  0  0  0  0  6  0  0
   -1.5000    0.0000    0.0000 O   0  0  0  0  0  0  0  0  0  1  0  0
   -3.7500   -1.2990    0.0000 N   0  0  0  0  0  0  0  0  0  7  0  0
    0.8083    1.8481    0.0000 C   0  0  0  0  0  0  0  0  0 14  0  0
    0.8083    3.3481    0.0000 C   0  0  0  0  0  0  0  0  0 15  0  0
   -5.2500   -1.2990    0.0000 C   0  0  0  0  0  0  0  0  0 25  0  0
   -3.0000   -2.5981    0.0000 C   0  0  0  0  0  0  0  0  0 32  0  0
    2.1991    1.2862    0.0000 H   0  0  0  0  0  0  0  0  0  0  0  0
    2.0218    4.2298    0.0000 H   0  0  0  0  0  0  0  0  0  0  0  0
   -6.0000   -2.5981    0.0000 C   0  0  0  0  0  0  0  0  0 22  0  0
   -6.6595   -0.7860    0.0000 H   0  0  0  0  0  0  0  0  0  0  0  0
   -4.9895    0.1782    0.0000 H   0  0  0  0  0  0  0  0  0  0  0  0
   -3.7500   -3.8971    0.0000 C   0  0  0  0  0  0  0  0  0 23  0  0
   -1.8509   -1.6339    0.0000 C   0  0  0  0  0  0  0  0  0 24  0  0
   -1.8509   -3.5623    0.0000 H   0  0  0  0  0  0  0  0  0  0  0  0
   -5.2500   -3.8971    0.0000 O   0  0  0  0  0  0  0  0  0  2  0  0
   -7.1491   -3.5623    0.0000 H   0  0  0  0  0  0  0  0  0  0  0  0
   -7.1491   -1.6339    0.0000 H   0  0  0  0  0  0  0  0  0  0  0  0
   -2.3405   -4.4101    0.0000 H   0  0  0  0  0  0  0  0  0  0  0  0
   -4.0105   -5.3743    0.0000 H   0  0  0  0  0  0  0  0  0  0  0  0
   -0.7019   -0.6697    0.0000 C   0  0  0  0  0  0  0  0  0 28  0  0
   -0.8868   -2.7830    0.0000 H   0  0  0  0  0  0  0  0  0  0  0  0
   -2.3835   -0.5418    0.0000 H   0  0  0  0  0  0  0  0  0  0  0  0
   -0.9623    0.8075    0.0000 C   0  0  0  0  0  0  0  0  0 17  0  0
    0.7077   -1.1827    0.0000 C   0  0  0  0  0  0  0  0  0 19  0  0
    0.1867    1.7717    0.0000 C   0  0  0  0  0  0  0  0  0 11  0  0
   -2.3719    1.3205    0.0000 H   0  0  0  0  0  0  0  0  0  0  0  0
    1.8567   -0.2186    0.0000 C   0  0  0  0  0  0  0  0  0 29  0  0
    0.9681   -2.6600    0.0000 H   0  0  0  0  0  0  0  0  0  0  0  0
    1.5963    1.2586    0.0000 C   0  0  0  0  0  0  0  0  0 18  0  0
    0.2914    3.2680    0.0000 H   0  0  0  0  0  0  0  0  0  0  0  0
    3.2663   -0.7316    0.0000 N   0  0  0  0  0  0  0  0  0  8  0  0
    2.7453    2.2228    0.0000 H   0  0  0  0  0  0  0  0  0  0  0  0
    3.6797   -2.1735    0.0000 N   0  0  0  0  0  0  0  0  0  3  0  0
    4.5098    0.1072    0.0000 N   0  0  0  0  0  0  0  0  0  4  0  0
    5.1788   -2.2258    0.0000 C   0  0  0  0  0  0  0  0  0 12  0  0
    5.6919   -0.8163    0.0000 C   0  0  0  0  0  0  0  0  0 13  0  0
    6.0176   -3.4694    0.0000 H   0  0  0  0  0  0  0  0  0  0  0  0
    7.1337   -0.4028    0.0000 H   0  0  0  0  0  0  0  0  0  0  0  0
   -7.2990    4.4462    0.0000 H   0  0  0  0  0  0  0  0  0  0  0  0
   -4.7010    5.9462    0.0000 H   0  0  0  0  0  0  0  0  0  0  0  0
   -6.0000    7.7942    0.0000 H   0  0  0  0  0  0  0  0  0  0  0  0
  1  2  1  0
  2  3  1  0
  4  1  2  0
  1  5  1  0
  6  4  1  0
  4  7  1  0
  5  8  2  0
  5  9  1  0
 10  6  2  0
  6 11  1  0
  8 12  1  0
  8 10  1  0
 13 10  1  0
 12 14  1  0
 15 12  1  0
 16 13  2  0
 13 17  1  0
 14 18  2  0
 19 15  2  0
 17 20  1  0
 21 17  1  0
 18 19  1  0
 18 22  1  0
 19 23  1  0
 20 24  1  0
 20 25  1  0
 20 26  1  0
 27 21  1  0
 21 28  1  0
 21 29  1  1
 24 30  1  0
 24 31  1  0
 24 32  1  0
 30 27  1  0
 27 33  1  0
 27 34  1  0
 28 35  1  0
 28 36  1  0
 28 37  1  0
 35 38  2  0
 39 35  1  0
 38 40  1  0
 38 41  1  0
 42 39  2  0
 39 43  1  0
 40 44  2  0
 40 45  1  0
 44 42  1  0
 42 46  1  0
 44 47  1  0
 46 48  1  0
 49 46  1  0
 48 50  2  0
 51 49  2  0
 50 51  1  0
 50 52  1  0
 51 53  1  0
  2 54  1  0
  2 55  1  0
  3 56  1  0
M  END
>  <SMILES>  (1) 
O=C(c1ccc(CO)cc1-n1nccn1)N1CCOCC1Cc1cccc(-n2nccn2)c1

>  <Molecular Weight>  (1) 
445.5

>  <Substrate_ID>  (1) 
MOL0067

>  <Substrate>  (1) 


>  <Substrate_SMILES>  (1) 
Cc1ccc(C(=O)N2CCOCC2Cc2cccc(-n3nccn3)c2)c(-n2nccn2)c1

>  <Reaction>  (1) 
benzylic_hydroxylation_(c-CH3),aliphatic hydroxylation

>  <Score>  (1) 
0.5785

>  <Reaction_Score>  (1) 
0.5692

>  <Bond_Score>  (1) 
0.588

>  <Rank>  (1) 
1

>  <Subtype>  (1) 
REACTION

>  <Subtype_Scores>  (1) 
[REACTION] SOM_score: 0.5880, Reaction_score: 0.5692, Score: 0.5785


$$$$

     RDKit          2D

 58 61  0  0  0  0  0  0  0  0999 V2000
    2.2500   -6.4952    0.0000 C   0  0  0  0  0  0  0  0  0 22  0  0
    3.0000   -7.7942    0.0000 O   0  0  0  0  0  0  0  0  0  2  0  0
   -0.7500   -6.8971    0.0000 O   0  0  0  0  0  0  0  0  0 33  0  0
   -0.7500   -5.3971    0.0000 C   0  0  0  0  0  0  0  0  0 23  0  0
    1.5000   -5.1962    0.0000 C   0  0  0  0  0  0  0  0  0 25  0  0
    3.1233   -5.8371    0.0000 H   0  0  0  0  0  0  0  0  0  0  0  0
    0.9510   -7.2452    0.0000 H   0  0  0  0  0  0  0  0  0  0  0  0
    0.7500   -3.8971    0.0000 N   0  0  0  0  0  0  0  0  0  7  0  0
    2.4059   -4.8116    0.0000 H   0  0  0  0  0  0  0  0  0  0  0  0
    0.3021   -6.0989    0.0000 H   0  0  0  0  0  0  0  0  0  0  0  0
    1.5000   -2.5981    0.0000 C   0  0  0  0  0  0  0  0  0 26  0  0
   -0.7500   -3.8971    0.0000 C   0  0  0  0  0  0  0  0  0 32  0  0
    1.0571   -1.8310    0.0000 O   0  0  0  0  0  0  0  0  0  1  0  0
    3.0000   -2.5981    0.0000 C   0  0  0  0  0  0  0  0  0 30  0  0
   -0.7500   -2.3971    0.0000 C   0  0  0  0  0  0  0  0  0 24  0  0
   -2.2500   -3.8971    0.0000 H   0  0  0  0  0  0  0  0  0  0  0  0
    3.7500   -3.8971    0.0000 C   0  0  0  0  0  0  0  0  0 20  0  0
    3.7500   -1.2990    0.0000 C   0  0  0  0  0  0  0  0  0 31  0  0
   -0.7500   -0.8971    0.0000 C   0  0  0  0  0  0  0  0  0 28  0  0
   -2.2500   -2.3971    0.0000 H   0  0  0  0  0  0  0  0  0  0  0  0
    0.1094   -2.1828    0.0000 H   0  0  0  0  0  0  0  0  0  0  0  0
    5.2500   -3.8971    0.0000 C   0  0  0  0  0  0  0  0  0 16  0  0
    3.3514   -4.5875    0.0000 H   0  0  0  0  0  0  0  0  0  0  0  0
    5.2500   -1.2990    0.0000 C   0  0  0  0  0  0  0  0  0 21  0  0
    3.0000   -0.0000    0.0000 N   0  0  0  0  0  0  0  0  0  9  0  0
    0.5490   -0.1471    0.0000 C   0  0  0  0  0  0  0  0  0 17  0  0
   -2.0490   -0.1471    0.0000 C   0  0  0  0  0  0  0  0  0 19  0  0
    6.0000   -2.5981    0.0000 C   0  0  0  0  0  0  0  0  0 27  0  0
    6.0000   -5.1962    0.0000 H   0  0  0  0  0  0  0  0  0  0  0  0
    6.0000   -0.0000    0.0000 H   0  0  0  0  0  0  0  0  0  0  0  0
    1.5082    0.1568    0.0000 N   0  0  0  0  0  0  0  0  0  5  0  0
    3.6101    1.3703    0.0000 N   0  0  0  0  0  0  0  0  0  6  0  0
    0.5490    1.3529    0.0000 C   0  0  0  0  0  0  0  0  0 11  0  0
    1.8481   -0.8971    0.0000 H   0  0  0  0  0  0  0  0  0  0  0  0
   -2.0490    1.3529    0.0000 C   0  0  0  0  0  0  0  0  0 29  0  0
   -3.3481   -0.8971    0.0000 H   0  0  0  0  0  0  0  0  0  0  0  0
    7.5000   -2.5981    0.0000 C   0  0  0  0  0  0  0  0  0 10  0  0
    1.1963    1.6240    0.0000 C   0  0  0  0  0  0  0  0  0 14  0  0
    2.4954    2.3740    0.0000 C   0  0  0  0  0  0  0  0  0 15  0  0
   -0.7500    2.1029    0.0000 C   0  0  0  0  0  0  0  0  0 18  0  0
    1.6280    2.3949    0.0000 H   0  0  0  0  0  0  0  0  0  0  0  0
   -3.3481    2.1029    0.0000 N   0  0  0  0  0  0  0  0  0  8  0  0
    9.0000   -2.5981    0.0000 H   0  0  0  0  0  0  0  0  0  0  0  0
    7.5000   -4.0981    0.0000 H   0  0  0  0  0  0  0  0  0  0  0  0
    7.5000   -1.0981    0.0000 H   0  0  0  0  0  0  0  0  0  0  0  0
    0.0144    2.5476    0.0000 H   0  0  0  0  0  0  0  0  0  0  0  0
    2.6522    3.8658    0.0000 H   0  0  0  0  0  0  0  0  0  0  0  0
   -0.7500    3.6029    0.0000 H   0  0  0  0  0  0  0  0  0  0  0  0
   -4.7184    1.4928    0.0000 N   0  0  0  0  0  0  0  0  0  3  0  0
   -3.5049    3.5947    0.0000 N   0  0  0  0  0  0  0  0  0  4  0  0
   -5.7221    2.6075    0.0000 C   0  0  0  0  0  0  0  0  0 12  0  0
   -4.9721    3.9065    0.0000 C   0  0  0  0  0  0  0  0  0 13  0  0
   -7.2139    2.4507    0.0000 H   0  0  0  0  0  0  0  0  0  0  0  0
   -5.5822    5.2769    0.0000 H   0  0  0  0  0  0  0  0  0  0  0  0
   -2.2500   -5.3971    0.0000 H   0  0  0  0  0  0  0  0  0  0  0  0
    0.6503   -5.9348    0.0000 H   0  0  0  0  0  0  0  0  0  0  0  0
    2.2500   -9.0933    0.0000 H   0  0  0  0  0  0  0  0  0  0  0  0
   -2.0490   -7.6471    0.0000 H   0  0  0  0  0  0  0  0  0  0  0  0
  1  2  1  0
  3  4  1  0
  5  1  1  0
  1  6  1  0
  1  7  1  0
  8  5  1  0
  5  9  1  0
  5 10  1  0
 11  8  1  0
 12  8  1  0
 13 11  2  0
 11 14  1  0
  4 12  1  0
 12 15  1  0
 12 16  1  6
 14 17  2  0
 18 14  1  0
 15 19  1  0
 15 20  1  0
 15 21  1  0
 17 22  1  0
 17 23  1  0
 24 18  2  0
 18 25  1  0
 19 26  2  0
 27 19  1  0
 22 28  2  0
 22 29  1  0
 28 24  1  0
 24 30  1  0
 25 31  1  0
 32 25  1  0
 26 33  1  0
 26 34  1  0
 35 27  2  0
 27 36  1  0
 28 37  1  0
 31 38  2  0
 39 32  2  0
 33 40  2  0
 33 41  1  0
 40 35  1  0
 35 42  1  0
 37 43  1  0
 37 44  1  0
 37 45  1  0
 38 39  1  0
 38 46  1  0
 39 47  1  0
 40 48  1  0
 42 49  1  0
 50 42  1  0
 49 51  2  0
 52 50  2  0
 51 52  1  0
 51 53  1  0
 52 54  1  0
  4 55  1  0
  4 56  1  0
  2 57  1  0
  3 58  1  0
M  END
>  <SMILES>  (2) 
Cc1ccc(C(=O)N(CCO)C(CO)Cc2cccc(-n3nccn3)c2)c(-n2nccn2)c1

>  <Molecular Weight>  (2) 
447.5

>  <Substrate_ID>  (2) 
MOL0067

>  <Substrate>  (2) 


>  <Substrate_SMILES>  (2) 
Cc1ccc(C(=O)N2CCOCC2Cc2cccc(-n3nccn3)c2)c(-n2nccn2)c1

>  <Reaction>  (2) 
O-dealkylation_(aliphatic),O-dealkylation_(ether)

>  <Score>  (2) 
0.4039

>  <Reaction_Score>  (2) 
0.3995

>  <Bond_Score>  (2) 
0.4084

>  <Rank>  (2) 
2

>  <Subtype>  (2) 
REACTION

>  <Subtype_Scores>  (2) 
[REACTION] SOM_score: 0.1474, Reaction_score: 0.0987, Score: 0.1206


$$$$

     RDKit          2D

 56 60  0  0  0  0  0  0  0  0999 V2000
    1.5000    0.0000    0.0000 C   0  0  0  0  0  0  0  0  0 22  0  0
    0.7500   -1.2990    0.0000 C   0  0  0  0  0  0  0  0  0 25  0  0
    2.1595   -1.8121    0.0000 O   0  0  0  0  0  0  0  0  0 33  0  0
   -0.7500   -1.2990    0.0000 N   0  0  0  0  0  0  0  0  0  7  0  0
    0.7500    1.2990    0.0000 O   0  0  0  0  0  0  0  0  0  2  0  0
    2.6491    0.9642    0.0000 H   0  0  0  0  0  0  0  0  0  0  0  0
    2.6491   -0.9642    0.0000 H   0  0  0  0  0  0  0  0  0  0  0  0
   -0.7500    1.2990    0.0000 C   0  0  0  0  0  0  0  0  0 23  0  0
   -1.5000    0.0000    0.0000 C   0  0  0  0  0  0  0  0  0 32  0  0
   -2.1595    1.8121    0.0000 H   0  0  0  0  0  0  0  0  0  0  0  0
   -0.4895    2.7762    0.0000 H   0  0  0  0  0  0  0  0  0  0  0  0
   -2.6491   -0.9642    0.0000 C   0  0  0  0  0  0  0  0  0 24  0  0
   -2.6491    0.9642    0.0000 H   0  0  0  0  0  0  0  0  0  0  0  0
   -3.7981   -1.9284    0.0000 C   0  0  0  0  0  0  0  0  0 28  0  0
   -3.4660    0.2938    0.0000 H   0  0  0  0  0  0  0  0  0  0  0  0
   -2.1165   -2.0562    0.0000 H   0  0  0  0  0  0  0  0  0  0  0  0
   -3.5377   -3.4056    0.0000 C   0  0  0  0  0  0  0  0  0 17  0  0
   -5.2077   -1.4153    0.0000 C   0  0  0  0  0  0  0  0  0 19  0  0
   -4.6867   -4.3698    0.0000 C   0  0  0  0  0  0  0  0  0 11  0  0
   -2.1281   -3.9186    0.0000 H   0  0  0  0  0  0  0  0  0  0  0  0
   -6.3567   -2.3795    0.0000 C   0  0  0  0  0  0  0  0  0 29  0  0
   -5.6463    0.0191    0.0000 H   0  0  0  0  0  0  0  0  0  0  0  0
   -6.0963   -3.8567    0.0000 C   0  0  0  0  0  0  0  0  0 18  0  0
   -4.4263   -5.8470    0.0000 H   0  0  0  0  0  0  0  0  0  0  0  0
   -7.7663   -1.8665    0.0000 N   0  0  0  0  0  0  0  0  0  8  0  0
   -7.1192   -4.9538    0.0000 H   0  0  0  0  0  0  0  0  0  0  0  0
   -8.1797   -0.4246    0.0000 N   0  0  0  0  0  0  0  0  0  3  0  0
   -9.0098   -2.7053    0.0000 N   0  0  0  0  0  0  0  0  0  4  0  0
   -9.6788   -0.3722    0.0000 C   0  0  0  0  0  0  0  0  0 12  0  0
  -10.1919   -1.7818    0.0000 C   0  0  0  0  0  0  0  0  0 13  0  0
  -10.5176    0.8713    0.0000 H   0  0  0  0  0  0  0  0  0  0  0  0
  -11.6337   -2.1952    0.0000 H   0  0  0  0  0  0  0  0  0  0  0  0
    0.4895   -2.7762    0.0000 H   0  0  0  0  0  0  0  0  0  0  0  0
   -1.5000   -2.5981    0.0000 C   0  0  0  0  0  0  0  0  0 26  0  0
   -0.7500   -3.8971    0.0000 O   0  0  0  0  0  0  0  0  0  1  0  0
   -3.0000   -2.5981    0.0000 C   0  0  0  0  0  0  0  0  0 30  0  0
   -3.7500   -1.2990    0.0000 C   0  0  0  0  0  0  0  0  0 20  0  0
   -3.7500   -3.8971    0.0000 C   0  0  0  0  0  0  0  0  0 31  0  0
   -5.2500   -1.2990    0.0000 C   0  0  0  0  0  0  0  0  0 16  0  0
   -3.1639    0.0817    0.0000 H   0  0  0  0  0  0  0  0  0  0  0  0
   -5.2500   -3.8971    0.0000 C   0  0  0  0  0  0  0  0  0 21  0  0
   -3.0000   -5.1962    0.0000 N   0  0  0  0  0  0  0  0  0  9  0  0
   -6.0000   -2.5981    0.0000 C   0  0  0  0  0  0  0  0  0 27  0  0
   -5.8361    0.0817    0.0000 H   0  0  0  0  0  0  0  0  0  0  0  0
   -6.0000   -5.1962    0.0000 H   0  0  0  0  0  0  0  0  0  0  0  0
   -1.5082   -5.3529    0.0000 N   0  0  0  0  0  0  0  0  0  5  0  0
   -3.6101   -6.5665    0.0000 N   0  0  0  0  0  0  0  0  0  6  0  0
   -7.5000   -2.5981    0.0000 C   0  0  0  0  0  0  0  0  0 10  0  0
   -1.1963   -6.8202    0.0000 C   0  0  0  0  0  0  0  0  0 14  0  0
   -2.4954   -7.5702    0.0000 C   0  0  0  0  0  0  0  0  0 15  0  0
   -8.9554   -2.9610    0.0000 H   0  0  0  0  0  0  0  0  0  0  0  0
   -7.8630   -1.1427    0.0000 H   0  0  0  0  0  0  0  0  0  0  0  0
   -7.6828   -4.0869    0.0000 H   0  0  0  0  0  0  0  0  0  0  0  0
    0.1740   -7.4303    0.0000 H   0  0  0  0  0  0  0  0  0  0  0  0
   -2.6522   -9.0619    0.0000 H   0  0  0  0  0  0  0  0  0  0  0  0
    2.4200   -3.2893    0.0000 H   0  0  0  0  0  0  0  0  0  0  0  0
  1  2  1  0
  2  3  1  0
  2  4  1  0
  1  5  1  0
  1  6  1  0
  1  7  1  0
  5  8  1  0
  8  9  1  0
  8 10  1  0
  8 11  1  0
  9 12  1  0
  9  4  1  0
  9 13  1  1
 12 14  1  0
 12 15  1  0
 12 16  1  0
 14 17  2  0
 18 14  1  0
 17 19  1  0
 17 20  1  0
 21 18  2  0
 18 22  1  0
 19 23  2  0
 19 24  1  0
 23 21  1  0
 21 25  1  0
 23 26  1  0
 25 27  1  0
 28 25  1  0
 27 29  2  0
 30 28  2  0
 29 30  1  0
 29 31  1  0
 30 32  1  0
  2 33  1  0
 34  4  1  0
 35 34  2  0
 34 36  1  0
 36 37  2  0
 38 36  1  0
 37 39  1  0
 37 40  1  0
 41 38  2  0
 38 42  1  0
 39 43  2  0
 39 44  1  0
 43 41  1  0
 41 45  1  0
 42 46  1  0
 47 42  1  0
 43 48  1  0
 46 49  2  0
 50 47  2  0
 48 51  1  0
 48 52  1  0
 48 53  1  0
 49 50  1  0
 49 54  1  0
 50 55  1  0
  3 56  1  0
M  END
>  <SMILES>  (3) 
Cc1ccc(C(=O)N2C(O)COCC2Cc2cccc(-n3nccn3)c2)c(-n2nccn2)c1

>  <Molecular Weight>  (3) 
445.5

>  <Substrate_ID>  (3) 
MOL0067

>  <Substrate>  (3) 


>  <Substrate_SMILES>  (3) 
Cc1ccc(C(=O)N2CCOCC2Cc2cccc(-n3nccn3)c2)c(-n2nccn2)c1

>  <Reaction>  (3) 
aliphatic_hydroxylation_(sec_carbon_next_to_SP2,in_a_ring),aliphatic hydroxylation

>  <Score>  (3) 
0.3755

>  <Reaction_Score>  (3) 
0.314

>  <Bond_Score>  (3) 
0.4491

>  <Rank>  (3) 
3

>  <Subtype>  (3) 
REACTION

>  <Subtype_Scores>  (3) 
[REACTION] SOM_score: 0.4491, Reaction_score: 0.3140, Score: 0.3755


$$$$

     RDKit          2D

 54 58  0  0  0  0  0  0  0  0999 V2000
    1.5000    0.0000    0.0000 C   0  0  0  0  0  0  0  0  0 22  0  0
    0.7500   -1.2990    0.0000 C   0  0  0  0  0  0  0  0  0 25  0  0
    1.5000   -2.5981    0.0000 O   0  0  0  0  0  0  0  0  0 33  0  0
   -0.7500   -1.2990    0.0000 N   0  0  0  0  0  0  0  0  0  7  0  0
    0.7500    1.2990    0.0000 O   0  0  0  0  0  0  0  0  0  2  0  0
    2.6491    0.9642    0.0000 H   0  0  0  0  0  0  0  0  0  0  0  0
    2.6491   -0.9642    0.0000 H   0  0  0  0  0  0  0  0  0  0  0  0
   -0.7500    1.2990    0.0000 C   0  0  0  0  0  0  0  0  0 23  0  0
   -1.5000    0.0000    0.0000 C   0  0  0  0  0  0  0  0  0 32  0  0
   -2.1595    1.8121    0.0000 H   0  0  0  0  0  0  0  0  0  0  0  0
   -0.4895    2.7762    0.0000 H   0  0  0  0  0  0  0  0  0  0  0  0
   -2.6491   -0.9642    0.0000 C   0  0  0  0  0  0  0  0  0 24  0  0
   -2.6491    0.9642    0.0000 H   0  0  0  0  0  0  0  0  0  0  0  0
   -3.7981   -1.9284    0.0000 C   0  0  0  0  0  0  0  0  0 28  0  0
   -3.4660    0.2938    0.0000 H   0  0  0  0  0  0  0  0  0  0  0  0
   -2.1165   -2.0562    0.0000 H   0  0  0  0  0  0  0  0  0  0  0  0
   -3.5377   -3.4056    0.0000 C   0  0  0  0  0  0  0  0  0 17  0  0
   -5.2077   -1.4153    0.0000 C   0  0  0  0  0  0  0  0  0 19  0  0
   -4.6867   -4.3698    0.0000 C   0  0  0  0  0  0  0  0  0 11  0  0
   -2.1281   -3.9186    0.0000 H   0  0  0  0  0  0  0  0  0  0  0  0
   -6.3567   -2.3795    0.0000 C   0  0  0  0  0  0  0  0  0 29  0  0
   -5.6463    0.0191    0.0000 H   0  0  0  0  0  0  0  0  0  0  0  0
   -6.0963   -3.8567    0.0000 C   0  0  0  0  0  0  0  0  0 18  0  0
   -4.4263   -5.8470    0.0000 H   0  0  0  0  0  0  0  0  0  0  0  0
   -7.7663   -1.8665    0.0000 N   0  0  0  0  0  0  0  0  0  8  0  0
   -7.1192   -4.9538    0.0000 H   0  0  0  0  0  0  0  0  0  0  0  0
   -8.1797   -0.4246    0.0000 N   0  0  0  0  0  0  0  0  0  3  0  0
   -9.0098   -2.7053    0.0000 N   0  0  0  0  0  0  0  0  0  4  0  0
   -9.6788   -0.3722    0.0000 C   0  0  0  0  0  0  0  0  0 12  0  0
  -10.1919   -1.7818    0.0000 C   0  0  0  0  0  0  0  0  0 13  0  0
  -10.5176    0.8713    0.0000 H   0  0  0  0  0  0  0  0  0  0  0  0
  -11.6337   -2.1952    0.0000 H   0  0  0  0  0  0  0  0  0  0  0  0
   -1.5000   -2.5981    0.0000 C   0  0  0  0  0  0  0  0  0 26  0  0
   -0.7500   -3.8971    0.0000 O   0  0  0  0  0  0  0  0  0  1  0  0
   -3.0000   -2.5981    0.0000 C   0  0  0  0  0  0  0  0  0 30  0  0
   -3.7500   -1.2990    0.0000 C   0  0  0  0  0  0  0  0  0 20  0  0
   -3.7500   -3.8971    0.0000 C   0  0  0  0  0  0  0  0  0 31  0  0
   -5.2500   -1.2990    0.0000 C   0  0  0  0  0  0  0  0  0 16  0  0
   -3.1639    0.0817    0.0000 H   0  0  0  0  0  0  0  0  0  0  0  0
   -5.2500   -3.8971    0.0000 C   0  0  0  0  0  0  0  0  0 21  0  0
   -3.0000   -5.1962    0.0000 N   0  0  0  0  0  0  0  0  0  9  0  0
   -6.0000   -2.5981    0.0000 C   0  0  0  0  0  0  0  0  0 27  0  0
   -5.8361    0.0817    0.0000 H   0  0  0  0  0  0  0  0  0  0  0  0
   -6.0000   -5.1962    0.0000 H   0  0  0  0  0  0  0  0  0  0  0  0
   -1.5082   -5.3529    0.0000 N   0  0  0  0  0  0  0  0  0  5  0  0
   -3.6101   -6.5665    0.0000 N   0  0  0  0  0  0  0  0  0  6  0  0
   -7.5000   -2.5981    0.0000 C   0  0  0  0  0  0  0  0  0 10  0  0
   -1.1963   -6.8202    0.0000 C   0  0  0  0  0  0  0  0  0 14  0  0
   -2.4954   -7.5702    0.0000 C   0  0  0  0  0  0  0  0  0 15  0  0
   -8.9554   -2.9610    0.0000 H   0  0  0  0  0  0  0  0  0  0  0  0
   -7.8630   -1.1427    0.0000 H   0  0  0  0  0  0  0  0  0  0  0  0
   -7.6828   -4.0869    0.0000 H   0  0  0  0  0  0  0  0  0  0  0  0
    0.1740   -7.4303    0.0000 H   0  0  0  0  0  0  0  0  0  0  0  0
   -2.6522   -9.0619    0.0000 H   0  0  0  0  0  0  0  0  0  0  0  0
  1  2  1  0
  2  3  2  0
  2  4  1  0
  1  5  1  0
  1  6  1  0
  1  7  1  0
  5  8  1  0
  8  9  1  0
  8 10  1  0
  8 11  1  0
  9 12  1  0
  9  4  1  0
  9 13  1  1
 12 14  1  0
 12 15  1  0
 12 16  1  0
 14 17  2  0
 18 14  1  0
 17 19  1  0
 17 20  1  0
 21 18  2  0
 18 22  1  0
 19 23  2  0
 19 24  1  0
 23 21  1  0
 21 25  1  0
 23 26  1  0
 25 27  1  0
 28 25  1  0
 27 29  2  0
 30 28  2  0
 29 30  1  0
 29 31  1  0
 30 32  1  0
 33  4  1  0
 34 33  2  0
 33 35  1  0
 35 36  2  0
 37 35  1  0
 36 38  1  0
 36 39  1  0
 40 37  2  0
 37 41  1  0
 38 42  2  0
 38 43  1  0
 42 40  1  0
 40 44  1  0
 41 45  1  0
 46 41  1  0
 42 47  1  0
 45 48  2  0
 49 46  2  0
 47 50  1  0
 47 51  1  0
 47 52  1  0
 48 49  1  0
 48 53  1  0
 49 54  1  0
M  END
>  <SMILES>  (4) 
Cc1ccc(C(=O)N2C(=O)COCC2Cc2cccc(-n3nccn3)c2)c(-n2nccn2)c1

>  <Molecular Weight>  (4) 
443.5

>  <Substrate_ID>  (4) 
MOL0067

>  <Substrate>  (4) 


>  <Substrate_SMILES>  (4) 
Cc1ccc(C(=O)N2CCOCC2Cc2cccc(-n3nccn3)c2)c(-n2nccn2)c1

>  <Reaction>  (4) 
oxidation_(amine_in_a_ring)

>  <Score>  (4) 
0.3755

>  <Reaction_Score>  (4) 
0.314

>  <Bond_Score>  (4) 
0.4491

>  <Rank>  (4) 
3

>  <Subtype>  (4) 
REACTION

>  <Subtype_Scores>  (4) 
[REACTION] SOM_score: 0.4491, Reaction_score: 0.3140, Score: 0.3755


$$$$

     RDKit          2D

 56 60  0  0  0  0  0  0  0  0999 V2000
    1.5000    0.0000    0.0000 C   0  0  0  0  0  0  0  0  0 22  0  0
    2.6491    0.9642    0.0000 O   0  0  0  0  0  0  0  0  0 33  0  0
    4.0586    0.4512    0.0000 H   0  0  0  0  0  0  0  0  0  0  0  0
    0.7500   -1.2990    0.0000 C   0  0  0  0  0  0  0  0  0 25  0  0
    0.7500    1.2990    0.0000 O   0  0  0  0  0  0  0  0  0  2  0  0
    2.6491   -0.9642    0.0000 H   0  0  0  0  0  0  0  0  0  0  0  0
   -0.7500   -1.2990    0.0000 N   0  0  0  0  0  0  0  0  0  7  0  0
    2.1595   -1.8121    0.0000 H   0  0  0  0  0  0  0  0  0  0  0  0
    0.4895   -2.7762    0.0000 H   0  0  0  0  0  0  0  0  0  0  0  0
   -0.7500    1.2990    0.0000 C   0  0  0  0  0  0  0  0  0 23  0  0
   -1.5000   -2.5981    0.0000 C   0  0  0  0  0  0  0  0  0 26  0  0
   -1.5000    0.0000    0.0000 C   0  0  0  0  0  0  0  0  0 32  0  0
   -2.1595    1.8121    0.0000 H   0  0  0  0  0  0  0  0  0  0  0  0
   -0.4895    2.7762    0.0000 H   0  0  0  0  0  0  0  0  0  0  0  0
   -3.0000   -2.5981    0.0000 O   0  0  0  0  0  0  0  0  0  1  0  0
   -0.7500   -3.8971    0.0000 C   0  0  0  0  0  0  0  0  0 30  0  0
   -2.6491   -0.9642    0.0000 C   0  0  0  0  0  0  0  0  0 24  0  0
   -2.6491    0.9642    0.0000 H   0  0  0  0  0  0  0  0  0  0  0  0
    0.7500   -3.8971    0.0000 C   0  0  0  0  0  0  0  0  0 20  0  0
   -1.5000   -5.1962    0.0000 C   0  0  0  0  0  0  0  0  0 31  0  0
   -3.7981   -1.9284    0.0000 C   0  0  0  0  0  0  0  0  0 28  0  0
   -3.6132    0.1849    0.0000 H   0  0  0  0  0  0  0  0  0  0  0  0
   -2.1165   -2.0562    0.0000 H   0  0  0  0  0  0  0  0  0  0  0  0
    1.5000   -5.1962    0.0000 C   0  0  0  0  0  0  0  0  0 16  0  0
    1.5000   -2.5981    0.0000 H   0  0  0  0  0  0  0  0  0  0  0  0
   -0.7500   -6.4952    0.0000 C   0  0  0  0  0  0  0  0  0 21  0  0
   -3.0000   -5.1962    0.0000 N   0  0  0  0  0  0  0  0  0  9  0  0
   -3.5377   -3.4056    0.0000 C   0  0  0  0  0  0  0  0  0 17  0  0
   -5.2077   -1.4153    0.0000 C   0  0  0  0  0  0  0  0  0 19  0  0
    0.7500   -6.4952    0.0000 C   0  0  0  0  0  0  0  0  0 27  0  0
    3.0000   -5.1962    0.0000 H   0  0  0  0  0  0  0  0  0  0  0  0
   -1.5000   -7.7942    0.0000 H   0  0  0  0  0  0  0  0  0  0  0  0
   -3.8817   -3.9826    0.0000 N   0  0  0  0  0  0  0  0  0  5  0  0
   -3.8817   -6.4097    0.0000 N   0  0  0  0  0  0  0  0  0  6  0  0
   -4.6867   -4.3698    0.0000 C   0  0  0  0  0  0  0  0  0 11  0  0
   -2.1281   -3.9186    0.0000 H   0  0  0  0  0  0  0  0  0  0  0  0
   -6.3567   -2.3795    0.0000 C   0  0  0  0  0  0  0  0  0 29  0  0
   -5.4681    0.0619    0.0000 H   0  0  0  0  0  0  0  0  0  0  0  0
    1.5000   -7.7942    0.0000 C   0  0  0  0  0  0  0  0  0 10  0  0
   -5.3083   -4.4462    0.0000 C   0  0  0  0  0  0  0  0  0 14  0  0
   -5.3083   -5.9462    0.0000 C   0  0  0  0  0  0  0  0  0 15  0  0
   -6.0963   -3.8567    0.0000 C   0  0  0  0  0  0  0  0  0 18  0  0
   -4.7914   -5.8661    0.0000 H   0  0  0  0  0  0  0  0  0  0  0  0
   -7.7663   -1.8665    0.0000 N   0  0  0  0  0  0  0  0  0  8  0  0
    2.2500   -9.0933    0.0000 H   0  0  0  0  0  0  0  0  0  0  0  0
    2.7990   -7.0442    0.0000 H   0  0  0  0  0  0  0  0  0  0  0  0
    0.2010   -8.5442    0.0000 H   0  0  0  0  0  0  0  0  0  0  0  0
   -6.6991   -3.8843    0.0000 H   0  0  0  0  0  0  0  0  0  0  0  0
   -6.5218   -6.8278    0.0000 H   0  0  0  0  0  0  0  0  0  0  0  0
   -7.2453   -4.8209    0.0000 H   0  0  0  0  0  0  0  0  0  0  0  0
   -8.1797   -0.4246    0.0000 N   0  0  0  0  0  0  0  0  0  3  0  0
   -9.0098   -2.7053    0.0000 N   0  0  0  0  0  0  0  0  0  4  0  0
   -9.6788   -0.3722    0.0000 C   0  0  0  0  0  0  0  0  0 12  0  0
  -10.1919   -1.7818    0.0000 C   0  0  0  0  0  0  0  0  0 13  0  0
  -10.5176    0.8713    0.0000 H   0  0  0  0  0  0  0  0  0  0  0  0
  -11.6337   -2.1952    0.0000 H   0  0  0  0  0  0  0  0  0  0  0  0
  1  2  1  0
  2  3  1  0
  4  1  1  0
  1  5  1  0
  1  6  1  0
  7  4  1  0
  4  8  1  0
  4  9  1  0
  5 10  1  0
 11  7  1  0
 12  7  1  0
 10 12  1  0
 10 13  1  0
 10 14  1  0
 15 11  2  0
 11 16  1  0
 12 17  1  0
 12 18  1  1
 16 19  2  0
 20 16  1  0
 17 21  1  0
 17 22  1  0
 17 23  1  0
 19 24  1  0
 19 25  1  0
 26 20  2  0
 20 27  1  0
 21 28  2  0
 29 21  1  0
 24 30  2  0
 24 31  1  0
 30 26  1  0
 26 32  1  0
 27 33  1  0
 34 27  1  0
 28 35  1  0
 28 36  1  0
 37 29  2  0
 29 38  1  0
 30 39  1  0
 33 40  2  0
 41 34  2  0
 35 42  2  0
 35 43  1  0
 42 37  1  0
 37 44  1  0
 39 45  1  0
 39 46  1  0
 39 47  1  0
 40 41  1  0
 40 48  1  0
 41 49  1  0
 42 50  1  0
 44 51  1  0
 52 44  1  0
 51 53  2  0
 54 52  2  0
 53 54  1  0
 53 55  1  0
 54 56  1  0
M  END
>  <SMILES>  (5) 
Cc1ccc(C(=O)N2CC(O)OCC2Cc2cccc(-n3nccn3)c2)c(-n2nccn2)c1

>  <Molecular Weight>  (5) 
445.5

>  <Substrate_ID>  (5) 
MOL0067

>  <Substrate>  (5) 


>  <Substrate_SMILES>  (5) 
Cc1ccc(C(=O)N2CCOCC2Cc2cccc(-n3nccn3)c2)c(-n2nccn2)c1

>  <Reaction>  (5) 
aliphatic hydroxylation

>  <Score>  (5) 
0.2777

>  <Reaction_Score>  (5) 
0.1414

>  <Bond_Score>  (5) 
0.5454

>  <Rank>  (5) 
4

>  <Subtype>  (5) 
REACTION

>  <Subtype_Scores>  (5) 
[REACTION] SOM_score: 0.5454, Reaction_score: 0.1414, Score: 0.2777


$$$$

     RDKit          2D

 51 54  0  0  0  0  0  0  0  0999 V2000
    0.7500   -3.8971    0.0000 N   0  0  0  0  0  0  0  0  0  7  0  0
   -0.7500   -3.8971    0.0000 C   0  0  0  0  0  0  0  0  0 32  0  0
   -0.7500   -2.3971    0.0000 C   0  0  0  0  0  0  0  0  0 23  0  0
   -0.7500   -0.8971    0.0000 O   0  0  0  0  0  0  0  0  0  2  0  0
    1.5000   -2.5981    0.0000 C   0  0  0  0  0  0  0  0  0 26  0  0
    1.0571   -1.8310    0.0000 O   0  0  0  0  0  0  0  0  0  1  0  0
    3.0000   -2.5981    0.0000 C   0  0  0  0  0  0  0  0  0 30  0  0
    3.7500   -3.8971    0.0000 C   0  0  0  0  0  0  0  0  0 20  0  0
    3.7500   -1.2990    0.0000 C   0  0  0  0  0  0  0  0  0 31  0  0
    5.2500   -3.8971    0.0000 C   0  0  0  0  0  0  0  0  0 16  0  0
    3.0000   -5.1962    0.0000 H   0  0  0  0  0  0  0  0  0  0  0  0
    5.2500   -1.2990    0.0000 C   0  0  0  0  0  0  0  0  0 21  0  0
    3.0000   -0.0000    0.0000 N   0  0  0  0  0  0  0  0  0  9  0  0
    6.0000   -2.5981    0.0000 C   0  0  0  0  0  0  0  0  0 27  0  0
    6.0000   -5.1962    0.0000 H   0  0  0  0  0  0  0  0  0  0  0  0
    6.0000   -0.0000    0.0000 H   0  0  0  0  0  0  0  0  0  0  0  0
    1.5082    0.1568    0.0000 N   0  0  0  0  0  0  0  0  0  5  0  0
    3.6101    1.3703    0.0000 N   0  0  0  0  0  0  0  0  0  6  0  0
    7.5000   -2.5981    0.0000 C   0  0  0  0  0  0  0  0  0 10  0  0
    1.1963    1.6240    0.0000 C   0  0  0  0  0  0  0  0  0 14  0  0
    2.4954    2.3740    0.0000 C   0  0  0  0  0  0  0  0  0 15  0  0
    7.5000   -4.0981    0.0000 H   0  0  0  0  0  0  0  0  0  0  0  0
    7.5000   -1.0981    0.0000 H   0  0  0  0  0  0  0  0  0  0  0  0
    9.0000   -2.5981    0.0000 H   0  0  0  0  0  0  0  0  0  0  0  0
   -0.1740    2.2341    0.0000 H   0  0  0  0  0  0  0  0  0  0  0  0
    2.6522    3.8658    0.0000 H   0  0  0  0  0  0  0  0  0  0  0  0
   -2.2500   -3.8971    0.0000 C   0  0  0  0  0  0  0  0  0 24  0  0
   -0.7500   -5.3971    0.0000 H   0  0  0  0  0  0  0  0  0  0  0  0
   -3.7500   -3.8971    0.0000 C   0  0  0  0  0  0  0  0  0 28  0  0
   -2.3580   -3.0180    0.0000 H   0  0  0  0  0  0  0  0  0  0  0  0
   -2.2500   -5.3971    0.0000 H   0  0  0  0  0  0  0  0  0  0  0  0
   -4.5000   -2.5981    0.0000 C   0  0  0  0  0  0  0  0  0 17  0  0
   -4.5000   -5.1962    0.0000 C   0  0  0  0  0  0  0  0  0 19  0  0
   -6.0000   -2.5981    0.0000 C   0  0  0  0  0  0  0  0  0 11  0  0
   -3.7500   -1.2990    0.0000 H   0  0  0  0  0  0  0  0  0  0  0  0
   -6.0000   -5.1962    0.0000 C   0  0  0  0  0  0  0  0  0 29  0  0
   -3.7500   -6.4952    0.0000 H   0  0  0  0  0  0  0  0  0  0  0  0
   -6.7500   -3.8971    0.0000 C   0  0  0  0  0  0  0  0  0 18  0  0
   -6.7500   -1.2990    0.0000 H   0  0  0  0  0  0  0  0  0  0  0  0
   -6.7500   -6.4952    0.0000 N   0  0  0  0  0  0  0  0  0  8  0  0
   -8.2500   -3.8971    0.0000 H   0  0  0  0  0  0  0  0  0  0  0  0
   -6.1399   -7.8655    0.0000 N   0  0  0  0  0  0  0  0  0  3  0  0
   -8.2418   -6.6520    0.0000 N   0  0  0  0  0  0  0  0  0  4  0  0
   -7.2546   -8.8692    0.0000 C   0  0  0  0  0  0  0  0  0 12  0  0
   -8.5537   -8.1192    0.0000 C   0  0  0  0  0  0  0  0  0 13  0  0
   -7.0978  -10.3610    0.0000 H   0  0  0  0  0  0  0  0  0  0  0  0
   -9.9240   -8.7293    0.0000 H   0  0  0  0  0  0  0  0  0  0  0  0
   -1.6291   -2.2891    0.0000 H   0  0  0  0  0  0  0  0  0  0  0  0
    0.1094   -2.1828    0.0000 H   0  0  0  0  0  0  0  0  0  0  0  0
    1.5000   -5.1962    0.0000 H   0  0  0  0  0  0  0  0  0  0  0  0
   -2.0490   -0.1471    0.0000 H   0  0  0  0  0  0  0  0  0  0  0  0
  1  2  1  0
  2  3  1  0
  3  4  1  0
  5  1  1  0
  6  5  2  0
  5  7  1  0
  7  8  2  0
  9  7  1  0
  8 10  1  0
  8 11  1  0
 12  9  2  0
  9 13  1  0
 10 14  2  0
 10 15  1  0
 14 12  1  0
 12 16  1  0
 13 17  1  0
 18 13  1  0
 14 19  1  0
 17 20  2  0
 21 18  2  0
 19 22  1  0
 19 23  1  0
 19 24  1  0
 20 21  1  0
 20 25  1  0
 21 26  1  0
  2 27  1  0
  2 28  1  1
 27 29  1  0
 27 30  1  0
 27 31  1  0
 29 32  2  0
 33 29  1  0
 32 34  1  0
 32 35  1  0
 36 33  2  0
 33 37  1  0
 34 38  2  0
 34 39  1  0
 38 36  1  0
 36 40  1  0
 38 41  1  0
 40 42  1  0
 43 40  1  0
 42 44  2  0
 45 43  2  0
 44 45  1  0
 44 46  1  0
 45 47  1  0
  3 48  1  0
  3 49  1  0
  1 50  1  0
  4 51  1  0
M  END
>  <SMILES>  (6) 
Cc1ccc(C(=O)NC(CO)Cc2cccc(-n3nccn3)c2)c(-n2nccn2)c1

>  <Molecular Weight>  (6) 
403.4

>  <Substrate_ID>  (6) 
MOL0067

>  <Substrate>  (6) 


>  <Substrate_SMILES>  (6) 
Cc1ccc(C(=O)N2CCOCC2Cc2cccc(-n3nccn3)c2)c(-n2nccn2)c1

>  <Reaction>  (6) 
N-dealkylation_(morpholine)

>  <Score>  (6) 
0.2453

>  <Reaction_Score>  (6) 
0.233

>  <Bond_Score>  (6) 
0.2607

>  <Rank>  (6) 
5

>  <Subtype>  (6) 
REACTION

>  <Subtype_Scores>  (6) 
[REACTION] SOM_score: 0.2607, Reaction_score: 0.2330, Score: 0.2453


$$$$

     RDKit          2D

 56 60  0  0  0  0  0  0  0  0999 V2000
    1.5000    0.0000    0.0000 C   0  0  0  0  0  0  0  0  0 23  0  0
    2.6491    0.9642    0.0000 O   0  0  0  0  0  0  0  0  0 33  0  0
    4.0586    0.4512    0.0000 H   0  0  0  0  0  0  0  0  0  0  0  0
    0.7500   -1.2990    0.0000 O   0  0  0  0  0  0  0  0  0  2  0  0
    0.7500    1.2990    0.0000 C   0  0  0  0  0  0  0  0  0 32  0  0
    2.6491   -0.9642    0.0000 H   0  0  0  0  0  0  0  0  0  0  0  0
   -0.7500   -1.2990    0.0000 C   0  0  0  0  0  0  0  0  0 22  0  0
    0.4895    2.7762    0.0000 C   0  0  0  0  0  0  0  0  0 24  0  0
   -0.7500    1.2990    0.0000 N   0  0  0  0  0  0  0  0  0  7  0  0
    2.1595    1.8121    0.0000 H   0  0  0  0  0  0  0  0  0  0  0  0
   -1.5000    0.0000    0.0000 C   0  0  0  0  0  0  0  0  0 25  0  0
   -0.4895   -2.7762    0.0000 H   0  0  0  0  0  0  0  0  0  0  0  0
   -2.1595   -1.8121    0.0000 H   0  0  0  0  0  0  0  0  0  0  0  0
    0.2291    4.2535    0.0000 C   0  0  0  0  0  0  0  0  0 28  0  0
    1.9875    2.8547    0.0000 H   0  0  0  0  0  0  0  0  0  0  0  0
   -0.7225    2.8611    0.0000 H   0  0  0  0  0  0  0  0  0  0  0  0
   -1.5000    2.5981    0.0000 C   0  0  0  0  0  0  0  0  0 26  0  0
   -2.6491   -0.9642    0.0000 H   0  0  0  0  0  0  0  0  0  0  0  0
   -2.6491    0.9642    0.0000 H   0  0  0  0  0  0  0  0  0  0  0  0
   -1.1805    4.7665    0.0000 C   0  0  0  0  0  0  0  0  0 17  0  0
    1.3781    5.2176    0.0000 C   0  0  0  0  0  0  0  0  0 19  0  0
   -3.0000    2.5981    0.0000 O   0  0  0  0  0  0  0  0  0  1  0  0
   -0.7500    3.8971    0.0000 C   0  0  0  0  0  0  0  0  0 30  0  0
   -1.4410    6.2437    0.0000 C   0  0  0  0  0  0  0  0  0 11  0  0
   -2.3296    3.8023    0.0000 H   0  0  0  0  0  0  0  0  0  0  0  0
    1.1176    6.6949    0.0000 C   0  0  0  0  0  0  0  0  0 29  0  0
    2.8397    4.8803    0.0000 H   0  0  0  0  0  0  0  0  0  0  0  0
    0.7500    3.8971    0.0000 C   0  0  0  0  0  0  0  0  0 20  0  0
   -1.5000    5.1962    0.0000 C   0  0  0  0  0  0  0  0  0 31  0  0
   -0.2919    7.2079    0.0000 C   0  0  0  0  0  0  0  0  0 18  0  0
   -2.8505    6.7567    0.0000 H   0  0  0  0  0  0  0  0  0  0  0  0
    2.2667    7.6590    0.0000 N   0  0  0  0  0  0  0  0  0  8  0  0
    1.5000    5.1962    0.0000 C   0  0  0  0  0  0  0  0  0 16  0  0
    1.6528    2.6992    0.0000 H   0  0  0  0  0  0  0  0  0  0  0  0
   -0.7500    6.4952    0.0000 C   0  0  0  0  0  0  0  0  0 21  0  0
   -3.0000    5.1962    0.0000 N   0  0  0  0  0  0  0  0  0  9  0  0
   -0.7305    8.6423    0.0000 H   0  0  0  0  0  0  0  0  0  0  0  0
    3.7222    7.2962    0.0000 N   0  0  0  0  0  0  0  0  0  3  0  0
    2.1621    9.1554    0.0000 N   0  0  0  0  0  0  0  0  0  4  0  0
    0.7500    6.4952    0.0000 C   0  0  0  0  0  0  0  0  0 27  0  0
    2.9888    5.0133    0.0000 H   0  0  0  0  0  0  0  0  0  0  0  0
   -1.5000    7.7942    0.0000 H   0  0  0  0  0  0  0  0  0  0  0  0
   -3.8817    3.9826    0.0000 N   0  0  0  0  0  0  0  0  0  5  0  0
   -3.8817    6.4097    0.0000 N   0  0  0  0  0  0  0  0  0  6  0  0
    4.5170    8.5682    0.0000 C   0  0  0  0  0  0  0  0  0 12  0  0
    3.5529    9.7173    0.0000 C   0  0  0  0  0  0  0  0  0 13  0  0
    1.5000    7.7942    0.0000 C   0  0  0  0  0  0  0  0  0 10  0  0
   -5.3083    4.4462    0.0000 C   0  0  0  0  0  0  0  0  0 14  0  0
   -5.3083    5.9462    0.0000 C   0  0  0  0  0  0  0  0  0 15  0  0
    6.0134    8.6729    0.0000 H   0  0  0  0  0  0  0  0  0  0  0  0
    3.9157   11.1727    0.0000 H   0  0  0  0  0  0  0  0  0  0  0  0
    1.9134    9.2361    0.0000 H   0  0  0  0  0  0  0  0  0  0  0  0
    2.9419    7.3809    0.0000 H   0  0  0  0  0  0  0  0  0  0  0  0
    0.3021    8.6970    0.0000 H   0  0  0  0  0  0  0  0  0  0  0  0
   -6.5218    3.5645    0.0000 H   0  0  0  0  0  0  0  0  0  0  0  0
   -6.5218    6.8278    0.0000 H   0  0  0  0  0  0  0  0  0  0  0  0
  1  2  1  0
  2  3  1  0
  4  1  1  0
  1  5  1  0
  1  6  1  0
  7  4  1  0
  5  8  1  0
  5  9  1  0
  5 10  1  1
 11  7  1  0
  7 12  1  0
  7 13  1  0
  8 14  1  0
  8 15  1  0
  8 16  1  0
 17  9  1  0
  9 11  1  0
 11 18  1  0
 11 19  1  0
 14 20  2  0
 21 14  1  0
 22 17  2  0
 17 23  1  0
 20 24  1  0
 20 25  1  0
 26 21  2  0
 21 27  1  0
 23 28  2  0
 29 23  1  0
 24 30  2  0
 24 31  1  0
 30 26  1  0
 26 32  1  0
 28 33  1  0
 28 34  1  0
 35 29  2  0
 29 36  1  0
 30 37  1  0
 32 38  1  0
 39 32  1  0
 33 40  2  0
 33 41  1  0
 40 35  1  0
 35 42  1  0
 36 43  1  0
 44 36  1  0
 38 45  2  0
 46 39  2  0
 40 47  1  0
 43 48  2  0
 49 44  2  0
 45 46  1  0
 45 50  1  0
 46 51  1  0
 47 52  1  0
 47 53  1  0
 47 54  1  0
 48 49  1  0
 48 55  1  0
 49 56  1  0
M  END
>  <SMILES>  (7) 
Cc1ccc(C(=O)N2CCOC(O)C2Cc2cccc(-n3nccn3)c2)c(-n2nccn2)c1

>  <Molecular Weight>  (7) 
445.5

>  <Substrate_ID>  (7) 
MOL0067

>  <Substrate>  (7) 


>  <Substrate_SMILES>  (7) 
Cc1ccc(C(=O)N2CCOCC2Cc2cccc(-n3nccn3)c2)c(-n2nccn2)c1

>  <Reaction>  (7) 
aliphatic hydroxylation

>  <Score>  (7) 
0.1858

>  <Reaction_Score>  (7) 
0.1338

>  <Bond_Score>  (7) 
0.258

>  <Rank>  (7) 
6

>  <Subtype>  (7) 
REACTION

>  <Subtype_Scores>  (7) 
[REACTION] SOM_score: 0.2580, Reaction_score: 0.1338, Score: 0.1858


$$$$

     RDKit          2D

 56 60  0  0  0  0  0  0  0  0999 V2000
    0.7500   -1.2990    0.0000 N   0  0  0  0  0  4  0  0  0  7  0  0
    0.7083   -2.0951    0.0000 O   0  0  0  0  0  1  0  0  0 33  0  0
    2.1595   -1.8121    0.0000 C   0  0  0  0  0  0  0  0  0 26  0  0
    1.5000    0.0000    0.0000 C   0  0  0  0  0  0  0  0  0 25  0  0
   -0.7500   -1.2990    0.0000 C   0  0  0  0  0  0  0  0  0 32  0  0
    0.7500    1.2990    0.0000 C   0  0  0  0  0  0  0  0  0 22  0  0
    2.6491    0.9642    0.0000 H   0  0  0  0  0  0  0  0  0  0  0  0
    2.7580   -0.8169    0.0000 H   0  0  0  0  0  0  0  0  0  0  0  0
   -1.5000    0.0000    0.0000 C   0  0  0  0  0  0  0  0  0 23  0  0
   -0.4895   -2.7762    0.0000 C   0  0  0  0  0  0  0  0  0 24  0  0
   -2.1595   -1.8121    0.0000 H   0  0  0  0  0  0  0  0  0  0  0  0
   -0.7500    1.2990    0.0000 O   0  0  0  0  0  0  0  0  0  2  0  0
    0.4895    2.7762    0.0000 H   0  0  0  0  0  0  0  0  0  0  0  0
    2.1595    1.8121    0.0000 H   0  0  0  0  0  0  0  0  0  0  0  0
   -2.6491   -0.9642    0.0000 H   0  0  0  0  0  0  0  0  0  0  0  0
   -2.6491    0.9642    0.0000 H   0  0  0  0  0  0  0  0  0  0  0  0
   -0.2291   -4.2535    0.0000 C   0  0  0  0  0  0  0  0  0 28  0  0
   -1.9667   -3.0367    0.0000 H   0  0  0  0  0  0  0  0  0  0  0  0
    0.3950   -2.7299    0.0000 H   0  0  0  0  0  0  0  0  0  0  0  0
    1.1805   -4.7665    0.0000 C   0  0  0  0  0  0  0  0  0 17  0  0
   -1.3781   -5.2176    0.0000 C   0  0  0  0  0  0  0  0  0 19  0  0
    1.4410   -6.2437    0.0000 C   0  0  0  0  0  0  0  0  0 11  0  0
    2.5287   -4.1090    0.0000 H   0  0  0  0  0  0  0  0  0  0  0  0
   -1.1176   -6.6949    0.0000 C   0  0  0  0  0  0  0  0  0 29  0  0
   -2.7877   -4.7046    0.0000 H   0  0  0  0  0  0  0  0  0  0  0  0
    0.2919   -7.2079    0.0000 C   0  0  0  0  0  0  0  0  0 18  0  0
    2.6845   -7.0826    0.0000 H   0  0  0  0  0  0  0  0  0  0  0  0
   -2.2667   -7.6590    0.0000 N   0  0  0  0  0  0  0  0  0  8  0  0
    0.5524   -8.6851    0.0000 H   0  0  0  0  0  0  0  0  0  0  0  0
   -3.7222   -7.2962    0.0000 N   0  0  0  0  0  0  0  0  0  3  0  0
   -2.1621   -9.1554    0.0000 N   0  0  0  0  0  0  0  0  0  4  0  0
   -4.5170   -8.5682    0.0000 C   0  0  0  0  0  0  0  0  0 12  0  0
   -3.5529   -9.7173    0.0000 C   0  0  0  0  0  0  0  0  0 13  0  0
   -6.0134   -8.6729    0.0000 H   0  0  0  0  0  0  0  0  0  0  0  0
   -3.9157  -11.1727    0.0000 H   0  0  0  0  0  0  0  0  0  0  0  0
    3.4176   -0.9951    0.0000 O   0  0  0  0  0  0  0  0  0  1  0  0
    2.4200   -3.2893    0.0000 C   0  0  0  0  0  0  0  0  0 30  0  0
    1.2709   -4.2535    0.0000 C   0  0  0  0  0  0  0  0  0 20  0  0
    3.8296   -3.8023    0.0000 C   0  0  0  0  0  0  0  0  0 31  0  0
    1.5314   -5.7307    0.0000 C   0  0  0  0  0  0  0  0  0 16  0  0
   -0.2208   -4.0967    0.0000 H   0  0  0  0  0  0  0  0  0  0  0  0
    4.0900   -5.2795    0.0000 C   0  0  0  0  0  0  0  0  0 21  0  0
    4.9786   -2.8381    0.0000 N   0  0  0  0  0  0  0  0  0  9  0  0
    2.9410   -6.2437    0.0000 C   0  0  0  0  0  0  0  0  0 27  0  0
    0.1832   -6.3882    0.0000 H   0  0  0  0  0  0  0  0  0  0  0  0
    5.4996   -5.7926    0.0000 H   0  0  0  0  0  0  0  0  0  0  0  0
    4.8740   -1.3418    0.0000 N   0  0  0  0  0  0  0  0  0  5  0  0
    6.4341   -3.2010    0.0000 N   0  0  0  0  0  0  0  0  0  6  0  0
    3.2014   -7.7209    0.0000 C   0  0  0  0  0  0  0  0  0 10  0  0
    6.2648   -0.7799    0.0000 C   0  0  0  0  0  0  0  0  0 14  0  0
    7.2289   -1.9289    0.0000 C   0  0  0  0  0  0  0  0  0 15  0  0
    3.4619   -9.1981    0.0000 H   0  0  0  0  0  0  0  0  0  0  0  0
    1.7242   -7.9814    0.0000 H   0  0  0  0  0  0  0  0  0  0  0  0
    4.6786   -7.4604    0.0000 H   0  0  0  0  0  0  0  0  0  0  0  0
    6.6276    0.6756    0.0000 H   0  0  0  0  0  0  0  0  0  0  0  0
    8.7253   -1.8243    0.0000 H   0  0  0  0  0  0  0  0  0  0  0  0
  1  2  1  0
  1  3  1  0
  1  4  1  0
  5  1  1  0
  4  6  1  0
  4  7  1  0
  4  8  1  0
  9  5  1  0
  5 10  1  0
  5 11  1  1
  6 12  1  0
  6 13  1  0
  6 14  1  0
 12  9  1  0
  9 15  1  0
  9 16  1  0
 10 17  1  0
 10 18  1  0
 10 19  1  0
 17 20  2  0
 21 17  1  0
 20 22  1  0
 20 23  1  0
 24 21  2  0
 21 25  1  0
 22 26  2  0
 22 27  1  0
 26 24  1  0
 24 28  1  0
 26 29  1  0
 28 30  1  0
 31 28  1  0
 30 32  2  0
 33 31  2  0
 32 33  1  0
 32 34  1  0
 33 35  1  0
 36  3  2  0
  3 37  1  0
 37 38  2  0
 39 37  1  0
 38 40  1  0
 38 41  1  0
 42 39  2  0
 39 43  1  0
 40 44  2  0
 40 45  1  0
 44 42  1  0
 42 46  1  0
 43 47  1  0
 48 43  1  0
 44 49  1  0
 47 50  2  0
 51 48  2  0
 49 52  1  0
 49 53  1  0
 49 54  1  0
 50 51  1  0
 50 55  1  0
 51 56  1  0
M  CHG  2   1   1   2  -1
M  END
>  <SMILES>  (8) 
Cc1ccc(C(=O)[N+]2([O-])CCOCC2Cc2cccc(-n3nccn3)c2)c(-n2nccn2)c1

>  <Molecular Weight>  (8) 
445.5

>  <Substrate_ID>  (8) 
MOL0067

>  <Substrate>  (8) 


>  <Substrate_SMILES>  (8) 
Cc1ccc(C(=O)N2CCOCC2Cc2cccc(-n3nccn3)c2)c(-n2nccn2)c1

>  <Reaction>  (8) 
N-oxidation

>  <Score>  (8) 
0.042

>  <Reaction_Score>  (8) 
0.0074

>  <Bond_Score>  (8) 
0.2383

>  <Rank>  (8) 
7

>  <Subtype>  (8) 
REACTION

>  <Subtype_Scores>  (8) 
[REACTION] SOM_score: 0.2383, Reaction_score: 0.0074, Score: 0.0420


$$$$
