
     RDKit          2D

 56 60  0  0  0  0  0  0  0  0999 V2000
   -3.0039    7.7035    0.0000 C   0  0  0  0  0  0  0  0  0 25  0  0
   -4.1905    6.7859    0.0000 C   0  0  0  0  0  0  0  0  0 10  0  0
   -5.3771    5.8684    0.0000 O   0  0  0  0  0  0  0  0  0 33  0  0
   -1.6160    7.1347    0.0000 C   0  0  0  0  0  0  0  0  0 16  0  0
   -3.2053    9.1900    0.0000 C   0  0  0  0  0  0  0  0  0 14  0  0
   -0.4294    8.0523    0.0000 C   0  0  0  0  0  0  0  0  0 28  0  0
   -1.6008    5.9198    0.0000 H   0  0  0  0  0  0  0  0  0  0  0  0
   -2.0187   10.1075    0.0000 C   0  0  0  0  0  0  0  0  0 17  0  0
   -4.5932    9.7588    0.0000 H   0  0  0  0  0  0  0  0  0  0  0  0
    0.9586    7.4834    0.0000 C   0  0  0  0  0  0  0  0  0 24  0  0
   -0.6307    9.5387    0.0000 C   0  0  0  0  0  0  0  0  0 29  0  0
   -2.2200   11.5940    0.0000 H   0  0  0  0  0  0  0  0  0  0  0  0
    1.1600    5.9970    0.0000 N   0  0  0  0  0  0  0  0  0  8  0  0
    2.0245    8.5388    0.0000 O   0  0  0  0  0  0  0  0  0  2  0  0
    0.5559   10.4563    0.0000 N   0  0  0  0  0  0  0  0  0  9  0  0
    2.5865    5.5335    0.0000 C   0  0  0  0  0  0  0  0  0 32  0  0
   -0.0919    5.1707    0.0000 C   0  0  0  0  0  0  0  0  0 23  0  0
    1.9957   10.0356    0.0000 N   0  0  0  0  0  0  0  0  0  5  0  0
    0.5110   11.9556    0.0000 N   0  0  0  0  0  0  0  0  0  6  0  0
    3.1136    4.1291    0.0000 C   0  0  0  0  0  0  0  0  0 20  0  0
    2.7210    7.0274    0.0000 C   0  0  0  0  0  0  0  0  0 11  0  0
    4.0373    5.9145    0.0000 H   0  0  0  0  0  0  0  0  0  0  0  0
   -0.2264    3.6767    0.0000 C   0  0  0  0  0  0  0  0  0 22  0  0
   -1.2959    5.0076    0.0000 H   0  0  0  0  0  0  0  0  0  0  0  0
   -0.6190    6.5750    0.0000 H   0  0  0  0  0  0  0  0  0  0  0  0
    2.8407   11.2750    0.0000 C   0  0  0  0  0  0  0  0  0 12  0  0
    1.9231   12.4616    0.0000 C   0  0  0  0  0  0  0  0  0 13  0  0
    2.3442    2.8415    0.0000 C   0  0  0  0  0  0  0  0  0 21  0  0
    4.4569    4.7967    0.0000 H   0  0  0  0  0  0  0  0  0  0  0  0
    4.3161    3.2324    0.0000 H   0  0  0  0  0  0  0  0  0  0  0  0
    3.0366    8.4939    0.0000 H   0  0  0  0  0  0  0  0  0  0  0  0
    4.2150    6.8930    0.0000 H   0  0  0  0  0  0  0  0  0  0  0  0
    1.7913    7.3502    0.0000 H   0  0  0  0  0  0  0  0  0  0  0  0
    0.8578    2.6401    0.0000 N   0  0  0  0  0  0  0  0  0  7  0  0
   -0.9957    2.3890    0.0000 H   0  0  0  0  0  0  0  0  0  0  0  0
   -1.6988    3.9629    0.0000 H   0  0  0  0  0  0  0  0  0  0  0  0
    4.3400   11.3199    0.0000 H   0  0  0  0  0  0  0  0  0  0  0  0
    2.3437   13.9014    0.0000 H   0  0  0  0  0  0  0  0  0  0  0  0
    3.7037    2.2075    0.0000 H   0  0  0  0  0  0  0  0  0  0  0  0
    2.2098    1.3475    0.0000 H   0  0  0  0  0  0  0  0  0  0  0  0
    0.3943    1.2135    0.0000 C   0  0  0  0  0  0  0  0  0 27  0  0
    1.2760    0.0000    0.0000 O   0  0  0  0  0  0  0  0  0  3  0  0
   -1.0323    0.7500    0.0000 N   0  0  0  0  0  0  0  0  0  4  0  0
    0.3943   -1.2135    0.0000 C   0  0  0  0  0  0  0  0  0 31  0  0
   -1.0323   -0.7500    0.0000 C   0  0  0  0  0  0  0  0  0 30  0  0
    0.7062   -2.6807    0.0000 C   0  0  0  0  0  0  0  0  0 19  0  0
   -2.1470   -1.7537    0.0000 C   0  0  0  0  0  0  0  0  0 18  0  0
   -0.4086   -3.6844    0.0000 C   0  0  0  0  0  0  0  0  0 15  0  0
    2.1328   -3.1443    0.0000 H   0  0  0  0  0  0  0  0  0  0  0  0
   -1.8351   -3.2209    0.0000 C   0  0  0  0  0  0  0  0  0 26  0  0
   -3.5736   -1.2902    0.0000 H   0  0  0  0  0  0  0  0  0  0  0  0
   -0.0967   -5.1517    0.0000 H   0  0  0  0  0  0  0  0  0  0  0  0
   -2.9499   -4.2246    0.0000 Cl  0  0  0  0  0  0  0  0  0  1  0  0
   -5.1081    7.9725    0.0000 H   0  0  0  0  0  0  0  0  0  0  0  0
   -3.2729    5.5993    0.0000 H   0  0  0  0  0  0  0  0  0  0  0  0
   -5.1758    4.3819    0.0000 H   0  0  0  0  0  0  0  0  0  0  0  0
  1  2  1  0
  2  3  1  0
  4  1  2  0
  1  5  1  0
  6  4  1  0
  4  7  1  0
  5  8  2  0
  5  9  1  0
 10  6  1  0
 11  6  2  0
  8 11  1  0
  8 12  1  0
 13 10  1  0
 10 14  2  0
 11 15  1  0
 16 13  1  0
 13 17  1  0
 15 18  1  0
 19 15  1  0
 20 16  1  0
 16 21  1  0
 16 22  1  1
 17 23  1  0
 17 24  1  0
 17 25  1  0
 18 26  2  0
 27 19  2  0
 28 20  1  0
 20 29  1  0
 20 30  1  0
 21 31  1  0
 21 32  1  0
 21 33  1  0
 23 34  1  0
 23 35  1  0
 23 36  1  0
 26 27  1  0
 26 37  1  0
 27 38  1  0
 34 28  1  0
 28 39  1  0
 28 40  1  0
 41 34  1  0
 42 41  1  0
 41 43  2  0
 44 42  1  0
 43 45  1  0
 46 44  2  0
 45 44  1  0
 45 47  2  0
 48 46  1  0
 46 49  1  0
 47 50  1  0
 47 51  1  0
 50 48  2  0
 48 52  1  0
 53 50  1  0
  2 54  1  0
  2 55  1  0
  3 56  1  0
M  END
>  <SMILES>  (1) 
CC1CCN(c2nc3cc(Cl)ccc3o2)CCN1C(=O)c1cc(CO)ccc1-n1nccn1

>  <Molecular Weight>  (1) 
466.9

>  <Substrate_ID>  (1) 
MOL0044

>  <Substrate>  (1) 


>  <Substrate_SMILES>  (1) 
Cc1ccc(-n2nccn2)c(C(=O)N2CCN(c3nc4cc(Cl)ccc4o3)CCC2C)c1

>  <Reaction>  (1) 
benzylic_hydroxylation_(c-CH3),aliphatic hydroxylation

>  <Score>  (1) 
0.6045

>  <Reaction_Score>  (1) 
0.5899

>  <Bond_Score>  (1) 
0.6195

>  <Rank>  (1) 
1

>  <Subtype>  (1) 
REACTION

>  <Subtype_Scores>  (1) 
[REACTION] SOM_score: 0.6195, Reaction_score: 0.5899, Score: 0.6045


$$$$

     RDKit          2D

 56 60  0  0  0  0  0  0  0  0999 V2000
   -0.0919    5.1707    0.0000 C   0  0  0  0  0  0  0  0  0 20  0  0
   -0.2264    3.6767    0.0000 C   0  0  0  0  0  0  0  0  0 21  0  0
   -0.9957    2.3890    0.0000 O   0  0  0  0  0  0  0  0  0 33  0  0
    0.8578    2.6401    0.0000 N   0  0  0  0  0  0  0  0  0  7  0  0
    1.1600    5.9970    0.0000 C   0  0  0  0  0  0  0  0  0 32  0  0
   -1.5918    5.1520    0.0000 H   0  0  0  0  0  0  0  0  0  0  0  0
   -0.4609    5.8773    0.0000 H   0  0  0  0  0  0  0  0  0  0  0  0
    0.0758    7.0336    0.0000 C   0  0  0  0  0  0  0  0  0 11  0  0
    2.5865    5.5335    0.0000 N   0  0  0  0  0  0  0  0  0  8  0  0
    1.9293    7.2847    0.0000 H   0  0  0  0  0  0  0  0  0  0  0  0
   -1.0084    8.0702    0.0000 H   0  0  0  0  0  0  0  0  0  0  0  0
    1.1124    8.1178    0.0000 H   0  0  0  0  0  0  0  0  0  0  0  0
   -0.5413    6.5289    0.0000 H   0  0  0  0  0  0  0  0  0  0  0  0
    3.6231    6.6177    0.0000 C   0  0  0  0  0  0  0  0  0 24  0  0
    3.1136    4.1291    0.0000 C   0  0  0  0  0  0  0  0  0 23  0  0
    3.2025    8.0575    0.0000 O   0  0  0  0  0  0  0  0  0  2  0  0
    5.0804    6.2621    0.0000 C   0  0  0  0  0  0  0  0  0 28  0  0
    2.3442    2.8415    0.0000 C   0  0  0  0  0  0  0  0  0 22  0  0
    4.3655    4.9555    0.0000 H   0  0  0  0  0  0  0  0  0  0  0  0
    4.1978    3.0925    0.0000 H   0  0  0  0  0  0  0  0  0  0  0  0
    5.5010    4.8222    0.0000 C   0  0  0  0  0  0  0  0  0 16  0  0
    6.1170    7.3462    0.0000 C   0  0  0  0  0  0  0  0  0 29  0  0
    3.7037    2.2075    0.0000 H   0  0  0  0  0  0  0  0  0  0  0  0
    2.2098    1.3475    0.0000 H   0  0  0  0  0  0  0  0  0  0  0  0
    6.9582    4.4666    0.0000 C   0  0  0  0  0  0  0  0  0 25  0  0
    4.6043    3.6198    0.0000 H   0  0  0  0  0  0  0  0  0  0  0  0
    7.5742    6.9906    0.0000 C   0  0  0  0  0  0  0  0  0 17  0  0
    5.6963    8.7861    0.0000 N   0  0  0  0  0  0  0  0  0  9  0  0
    7.3789    3.0268    0.0000 C   0  0  0  0  0  0  0  0  0 10  0  0
    7.9948    5.5508    0.0000 C   0  0  0  0  0  0  0  0  0 14  0  0
    8.6108    8.0748    0.0000 H   0  0  0  0  0  0  0  0  0  0  0  0
    4.2842    9.2921    0.0000 N   0  0  0  0  0  0  0  0  0  5  0  0
    6.6139    9.9727    0.0000 N   0  0  0  0  0  0  0  0  0  6  0  0
    7.7995    1.5870    0.0000 H   0  0  0  0  0  0  0  0  0  0  0  0
    8.8187    3.4475    0.0000 H   0  0  0  0  0  0  0  0  0  0  0  0
    5.9391    2.6062    0.0000 H   0  0  0  0  0  0  0  0  0  0  0  0
    9.4521    5.1952    0.0000 H   0  0  0  0  0  0  0  0  0  0  0  0
    4.3291   10.7914    0.0000 C   0  0  0  0  0  0  0  0  0 12  0  0
    5.7689   11.2120    0.0000 C   0  0  0  0  0  0  0  0  0 13  0  0
    3.1425   11.7090    0.0000 H   0  0  0  0  0  0  0  0  0  0  0  0
    6.2749   12.6241    0.0000 H   0  0  0  0  0  0  0  0  0  0  0  0
   -1.6988    3.9629    0.0000 H   0  0  0  0  0  0  0  0  0  0  0  0
    0.3943    1.2135    0.0000 C   0  0  0  0  0  0  0  0  0 27  0  0
    1.2760    0.0000    0.0000 O   0  0  0  0  0  0  0  0  0  3  0  0
   -1.0323    0.7500    0.0000 N   0  0  0  0  0  0  0  0  0  4  0  0
    0.3943   -1.2135    0.0000 C   0  0  0  0  0  0  0  0  0 31  0  0
   -1.0323   -0.7500    0.0000 C   0  0  0  0  0  0  0  0  0 30  0  0
    0.7062   -2.6807    0.0000 C   0  0  0  0  0  0  0  0  0 19  0  0
   -2.1470   -1.7537    0.0000 C   0  0  0  0  0  0  0  0  0 18  0  0
   -0.4086   -3.6844    0.0000 C   0  0  0  0  0  0  0  0  0 15  0  0
    2.1328   -3.1443    0.0000 H   0  0  0  0  0  0  0  0  0  0  0  0
   -1.8351   -3.2209    0.0000 C   0  0  0  0  0  0  0  0  0 26  0  0
   -3.5736   -1.2902    0.0000 H   0  0  0  0  0  0  0  0  0  0  0  0
   -0.0967   -5.1517    0.0000 H   0  0  0  0  0  0  0  0  0  0  0  0
   -2.9499   -4.2246    0.0000 Cl  0  0  0  0  0  0  0  0  0  1  0  0
   -2.4955    2.4115    0.0000 H   0  0  0  0  0  0  0  0  0  0  0  0
  1  2  1  0
  2  3  1  0
  2  4  1  0
  1  5  1  0
  1  6  1  0
  1  7  1  0
  5  8  1  0
  5  9  1  0
  5 10  1  6
  8 11  1  0
  8 12  1  0
  8 13  1  0
  9 14  1  0
  9 15  1  0
 14 16  2  0
 14 17  1  0
 15 18  1  0
 15 19  1  0
 15 20  1  0
 17 21  2  0
 22 17  1  0
 18  4  1  0
 18 23  1  0
 18 24  1  0
 21 25  1  0
 21 26  1  0
 27 22  2  0
 22 28  1  0
 25 29  1  0
 25 30  2  0
 30 27  1  0
 27 31  1  0
 28 32  1  0
 33 28  1  0
 29 34  1  0
 29 35  1  0
 29 36  1  0
 30 37  1  0
 32 38  2  0
 39 33  2  0
 38 39  1  0
 38 40  1  0
 39 41  1  0
  2 42  1  0
 43  4  1  0
 44 43  1  0
 43 45  2  0
 46 44  1  0
 45 47  1  0
 48 46  2  0
 47 46  1  0
 47 49  2  0
 50 48  1  0
 48 51  1  0
 49 52  1  0
 49 53  1  0
 52 50  2  0
 50 54  1  0
 55 52  1  0
  3 56  1  0
M  END
>  <SMILES>  (2) 
Cc1ccc(-n2nccn2)c(C(=O)N2CCN(c3nc4cc(Cl)ccc4o3)C(O)CC2C)c1

>  <Molecular Weight>  (2) 
466.9

>  <Substrate_ID>  (2) 
MOL0044

>  <Substrate>  (2) 


>  <Substrate_SMILES>  (2) 
Cc1ccc(-n2nccn2)c(C(=O)N2CCN(c3nc4cc(Cl)ccc4o3)CCC2C)c1

>  <Reaction>  (2) 
aliphatic_hydroxylation_(sec_carbon_next_to_SP2,in_a_ring),aliphatic hydroxylation

>  <Score>  (2) 
0.2158

>  <Reaction_Score>  (2) 
0.1961

>  <Bond_Score>  (2) 
0.2375

>  <Rank>  (2) 
2

>  <Subtype>  (2) 
REACTION

>  <Subtype_Scores>  (2) 
[REACTION] SOM_score: 0.2375, Reaction_score: 0.1961, Score: 0.2158


$$$$

     RDKit          2D

 54 58  0  0  0  0  0  0  0  0999 V2000
   -0.0919    5.1707    0.0000 C   0  0  0  0  0  0  0  0  0 20  0  0
   -0.2264    3.6767    0.0000 C   0  0  0  0  0  0  0  0  0 21  0  0
   -1.6307    3.1496    0.0000 O   0  0  0  0  0  0  0  0  0 33  0  0
    0.8578    2.6401    0.0000 N   0  0  0  0  0  0  0  0  0  7  0  0
    1.1600    5.9970    0.0000 C   0  0  0  0  0  0  0  0  0 32  0  0
   -1.5783    4.9693    0.0000 H   0  0  0  0  0  0  0  0  0  0  0  0
   -0.4609    5.8773    0.0000 H   0  0  0  0  0  0  0  0  0  0  0  0
    0.0758    7.0336    0.0000 C   0  0  0  0  0  0  0  0  0 11  0  0
    2.5865    5.5335    0.0000 N   0  0  0  0  0  0  0  0  0  8  0  0
    1.9293    7.2847    0.0000 H   0  0  0  0  0  0  0  0  0  0  0  0
   -1.0084    8.0702    0.0000 H   0  0  0  0  0  0  0  0  0  0  0  0
   -0.5413    6.5289    0.0000 H   0  0  0  0  0  0  0  0  0  0  0  0
    1.1124    8.1178    0.0000 H   0  0  0  0  0  0  0  0  0  0  0  0
    3.6231    6.6177    0.0000 C   0  0  0  0  0  0  0  0  0 24  0  0
    3.1136    4.1291    0.0000 C   0  0  0  0  0  0  0  0  0 23  0  0
    3.2025    8.0575    0.0000 O   0  0  0  0  0  0  0  0  0  2  0  0
    5.0804    6.2621    0.0000 C   0  0  0  0  0  0  0  0  0 28  0  0
    2.3442    2.8415    0.0000 C   0  0  0  0  0  0  0  0  0 22  0  0
    4.3655    4.9555    0.0000 H   0  0  0  0  0  0  0  0  0  0  0  0
    4.1978    3.0925    0.0000 H   0  0  0  0  0  0  0  0  0  0  0  0
    5.5010    4.8222    0.0000 C   0  0  0  0  0  0  0  0  0 16  0  0
    6.1170    7.3462    0.0000 C   0  0  0  0  0  0  0  0  0 29  0  0
    3.7037    2.2075    0.0000 H   0  0  0  0  0  0  0  0  0  0  0  0
    2.2098    1.3475    0.0000 H   0  0  0  0  0  0  0  0  0  0  0  0
    6.9582    4.4666    0.0000 C   0  0  0  0  0  0  0  0  0 25  0  0
    4.6043    3.6198    0.0000 H   0  0  0  0  0  0  0  0  0  0  0  0
    7.5742    6.9906    0.0000 C   0  0  0  0  0  0  0  0  0 17  0  0
    5.6963    8.7861    0.0000 N   0  0  0  0  0  0  0  0  0  9  0  0
    7.3789    3.0268    0.0000 C   0  0  0  0  0  0  0  0  0 10  0  0
    7.9948    5.5508    0.0000 C   0  0  0  0  0  0  0  0  0 14  0  0
    8.6108    8.0748    0.0000 H   0  0  0  0  0  0  0  0  0  0  0  0
    4.2842    9.2921    0.0000 N   0  0  0  0  0  0  0  0  0  5  0  0
    6.6139    9.9727    0.0000 N   0  0  0  0  0  0  0  0  0  6  0  0
    7.7995    1.5870    0.0000 H   0  0  0  0  0  0  0  0  0  0  0  0
    8.8187    3.4475    0.0000 H   0  0  0  0  0  0  0  0  0  0  0  0
    5.9391    2.6062    0.0000 H   0  0  0  0  0  0  0  0  0  0  0  0
    9.4521    5.1952    0.0000 H   0  0  0  0  0  0  0  0  0  0  0  0
    4.3291   10.7914    0.0000 C   0  0  0  0  0  0  0  0  0 12  0  0
    5.7689   11.2120    0.0000 C   0  0  0  0  0  0  0  0  0 13  0  0
    3.1425   11.7090    0.0000 H   0  0  0  0  0  0  0  0  0  0  0  0
    6.2749   12.6241    0.0000 H   0  0  0  0  0  0  0  0  0  0  0  0
    0.3943    1.2135    0.0000 C   0  0  0  0  0  0  0  0  0 27  0  0
    1.2760    0.0000    0.0000 O   0  0  0  0  0  0  0  0  0  3  0  0
   -1.0323    0.7500    0.0000 N   0  0  0  0  0  0  0  0  0  4  0  0
    0.3943   -1.2135    0.0000 C   0  0  0  0  0  0  0  0  0 31  0  0
   -1.0323   -0.7500    0.0000 C   0  0  0  0  0  0  0  0  0 30  0  0
    0.7062   -2.6807    0.0000 C   0  0  0  0  0  0  0  0  0 19  0  0
   -2.1470   -1.7537    0.0000 C   0  0  0  0  0  0  0  0  0 18  0  0
   -0.4086   -3.6844    0.0000 C   0  0  0  0  0  0  0  0  0 15  0  0
    2.1328   -3.1443    0.0000 H   0  0  0  0  0  0  0  0  0  0  0  0
   -1.8351   -3.2209    0.0000 C   0  0  0  0  0  0  0  0  0 26  0  0
   -3.5736   -1.2902    0.0000 H   0  0  0  0  0  0  0  0  0  0  0  0
   -0.0967   -5.1517    0.0000 H   0  0  0  0  0  0  0  0  0  0  0  0
   -2.9499   -4.2246    0.0000 Cl  0  0  0  0  0  0  0  0  0  1  0  0
  1  2  1  0
  2  3  2  0
  2  4  1  0
  1  5  1  0
  1  6  1  0
  1  7  1  0
  5  8  1  0
  5  9  1  0
  5 10  1  6
  8 11  1  0
  8 12  1  0
  8 13  1  0
  9 14  1  0
  9 15  1  0
 14 16  2  0
 14 17  1  0
 15 18  1  0
 15 19  1  0
 15 20  1  0
 17 21  2  0
 22 17  1  0
 18  4  1  0
 18 23  1  0
 18 24  1  0
 21 25  1  0
 21 26  1  0
 27 22  2  0
 22 28  1  0
 25 29  1  0
 25 30  2  0
 30 27  1  0
 27 31  1  0
 28 32  1  0
 33 28  1  0
 29 34  1  0
 29 35  1  0
 29 36  1  0
 30 37  1  0
 32 38  2  0
 39 33  2  0
 38 39  1  0
 38 40  1  0
 39 41  1  0
 42  4  1  0
 43 42  1  0
 42 44  2  0
 45 43  1  0
 44 46  1  0
 47 45  2  0
 46 45  1  0
 46 48  2  0
 49 47  1  0
 47 50  1  0
 48 51  1  0
 48 52  1  0
 51 49  2  0
 49 53  1  0
 54 51  1  0
M  END
>  <SMILES>  (3) 
Cc1ccc(-n2nccn2)c(C(=O)N2CCN(c3nc4cc(Cl)ccc4o3)C(=O)CC2C)c1

>  <Molecular Weight>  (3) 
464.9

>  <Substrate_ID>  (3) 
MOL0044

>  <Substrate>  (3) 


>  <Substrate_SMILES>  (3) 
Cc1ccc(-n2nccn2)c(C(=O)N2CCN(c3nc4cc(Cl)ccc4o3)CCC2C)c1

>  <Reaction>  (3) 
oxidation_(amine_in_a_ring)

>  <Score>  (3) 
0.2158

>  <Reaction_Score>  (3) 
0.1961

>  <Bond_Score>  (3) 
0.2375

>  <Rank>  (3) 
2

>  <Subtype>  (3) 
REACTION

>  <Subtype_Scores>  (3) 
[REACTION] SOM_score: 0.2375, Reaction_score: 0.1961, Score: 0.2158


$$$$

     RDKit          2D

 56 60  0  0  0  0  0  0  0  0999 V2000
    1.2760    0.0000    0.0000 N   0  0  0  0  0  0  0  0  0  4  0  0
    0.3943    1.2135    0.0000 C   0  0  0  0  0  0  0  0  0 30  0  0
   -1.0323    0.7500    0.0000 C   0  0  0  0  0  0  0  0  0 31  0  0
   -2.1470    1.7537    0.0000 C   0  0  0  0  0  0  0  0  0 19  0  0
   -1.8351    3.2209    0.0000 C   0  0  0  0  0  0  0  0  0 15  0  0
   -2.9499    4.2246    0.0000 O   0  0  0  0  0  0  0  0  0 33  0  0
   -0.4086    3.6844    0.0000 C   0  0  0  0  0  0  0  0  0 26  0  0
    0.7062    2.6807    0.0000 C   0  0  0  0  0  0  0  0  0 18  0  0
    0.3943   -1.2135    0.0000 C   0  0  0  0  0  0  0  0  0 27  0  0
   -1.0323   -0.7500    0.0000 O   0  0  0  0  0  0  0  0  0  3  0  0
    0.8578   -2.6401    0.0000 N   0  0  0  0  0  0  0  0  0  7  0  0
    2.3442   -2.8415    0.0000 C   0  0  0  0  0  0  0  0  0 21  0  0
   -0.2264   -3.6767    0.0000 C   0  0  0  0  0  0  0  0  0 22  0  0
    3.1136   -4.1291    0.0000 C   0  0  0  0  0  0  0  0  0 20  0  0
    2.2098   -1.3475    0.0000 H   0  0  0  0  0  0  0  0  0  0  0  0
    3.7037   -2.2075    0.0000 H   0  0  0  0  0  0  0  0  0  0  0  0
   -0.0919   -5.1707    0.0000 C   0  0  0  0  0  0  0  0  0 23  0  0
   -1.6988   -3.9629    0.0000 H   0  0  0  0  0  0  0  0  0  0  0  0
   -0.9957   -2.3890    0.0000 H   0  0  0  0  0  0  0  0  0  0  0  0
    2.5865   -5.5335    0.0000 C   0  0  0  0  0  0  0  0  0 32  0  0
    4.3161   -3.2324    0.0000 H   0  0  0  0  0  0  0  0  0  0  0  0
    3.8275   -4.4839    0.0000 H   0  0  0  0  0  0  0  0  0  0  0  0
    1.1600   -5.9970    0.0000 N   0  0  0  0  0  0  0  0  0  8  0  0
   -0.6190   -6.5750    0.0000 H   0  0  0  0  0  0  0  0  0  0  0  0
   -1.5783   -4.9693    0.0000 H   0  0  0  0  0  0  0  0  0  0  0  0
    4.0730   -5.7348    0.0000 C   0  0  0  0  0  0  0  0  0 11  0  0
    2.7210   -7.0274    0.0000 H   0  0  0  0  0  0  0  0  0  0  0  0
    0.9586   -7.4834    0.0000 C   0  0  0  0  0  0  0  0  0 24  0  0
    5.5594   -5.9362    0.0000 H   0  0  0  0  0  0  0  0  0  0  0  0
    3.8716   -7.2213    0.0000 H   0  0  0  0  0  0  0  0  0  0  0  0
    4.2755   -4.9638    0.0000 H   0  0  0  0  0  0  0  0  0  0  0  0
    2.1452   -8.4010    0.0000 O   0  0  0  0  0  0  0  0  0  2  0  0
   -0.4294   -8.0523    0.0000 C   0  0  0  0  0  0  0  0  0 28  0  0
   -1.6160   -7.1347    0.0000 C   0  0  0  0  0  0  0  0  0 16  0  0
   -0.6307   -9.5387    0.0000 C   0  0  0  0  0  0  0  0  0 29  0  0
   -3.0039   -7.7035    0.0000 C   0  0  0  0  0  0  0  0  0 25  0  0
   -1.5973   -5.6348    0.0000 H   0  0  0  0  0  0  0  0  0  0  0  0
   -2.0187  -10.1075    0.0000 C   0  0  0  0  0  0  0  0  0 17  0  0
    0.5559  -10.4563    0.0000 N   0  0  0  0  0  0  0  0  0  9  0  0
   -4.1905   -6.7859    0.0000 C   0  0  0  0  0  0  0  0  0 10  0  0
   -3.2053   -9.1900    0.0000 C   0  0  0  0  0  0  0  0  0 14  0  0
   -2.2200  -11.5940    0.0000 H   0  0  0  0  0  0  0  0  0  0  0  0
    1.9957  -10.0356    0.0000 N   0  0  0  0  0  0  0  0  0  5  0  0
    0.5110  -11.9556    0.0000 N   0  0  0  0  0  0  0  0  0  6  0  0
   -5.3771   -5.8684    0.0000 H   0  0  0  0  0  0  0  0  0  0  0  0
   -5.1081   -7.9725    0.0000 H   0  0  0  0  0  0  0  0  0  0  0  0
   -3.2729   -5.5993    0.0000 H   0  0  0  0  0  0  0  0  0  0  0  0
   -4.5932   -9.7588    0.0000 H   0  0  0  0  0  0  0  0  0  0  0  0
    2.8407  -11.2750    0.0000 C   0  0  0  0  0  0  0  0  0 12  0  0
    1.9231  -12.4616    0.0000 C   0  0  0  0  0  0  0  0  0 13  0  0
    4.3400  -11.3199    0.0000 H   0  0  0  0  0  0  0  0  0  0  0  0
    2.3437  -13.9014    0.0000 H   0  0  0  0  0  0  0  0  0  0  0  0
   -3.5736    1.2902    0.0000 H   0  0  0  0  0  0  0  0  0  0  0  0
   -0.0967    5.1517    0.0000 Cl  0  0  0  0  0  0  0  0  0  1  0  0
    2.1328    3.1443    0.0000 H   0  0  0  0  0  0  0  0  0  0  0  0
   -2.6380    5.6918    0.0000 H   0  0  0  0  0  0  0  0  0  0  0  0
  1  2  1  0
  2  3  2  0
  3  4  1  0
  4  5  2  0
  5  6  1  0
  5  7  1  0
  7  8  2  0
  8  2  1  0
  9  1  2  0
 10  9  1  0
  9 11  1  0
  3 10  1  0
 11 12  1  0
 13 11  1  0
 12 14  1  0
 12 15  1  0
 12 16  1  0
 17 13  1  0
 13 18  1  0
 13 19  1  0
 14 20  1  0
 14 21  1  0
 14 22  1  0
 23 17  1  0
 17 24  1  0
 17 25  1  0
 20 26  1  0
 20 23  1  0
 20 27  1  6
 23 28  1  0
 26 29  1  0
 26 30  1  0
 26 31  1  0
 28 32  2  0
 28 33  1  0
 33 34  2  0
 35 33  1  0
 34 36  1  0
 34 37  1  0
 38 35  2  0
 35 39  1  0
 36 40  1  0
 36 41  2  0
 41 38  1  0
 38 42  1  0
 39 43  1  0
 44 39  1  0
 40 45  1  0
 40 46  1  0
 40 47  1  0
 41 48  1  0
 43 49  2  0
 50 44  2  0
 49 50  1  0
 49 51  1  0
 50 52  1  0
  4 53  1  0
 54  7  1  0
  8 55  1  0
  6 56  1  0
M  END
>  <SMILES>  (4) 
Cc1ccc(-n2nccn2)c(C(=O)N2CCN(c3nc4cc(Cl)c(O)cc4o3)CCC2C)c1

>  <Molecular Weight>  (4) 
466.9

>  <Substrate_ID>  (4) 
MOL0044

>  <Substrate>  (4) 


>  <Substrate_SMILES>  (4) 
Cc1ccc(-n2nccn2)c(C(=O)N2CCN(c3nc4cc(Cl)ccc4o3)CCC2C)c1

>  <Reaction>  (4) 
aromatic_hydroxylation_(para_to_nitrogen),aromatic hydroxylation

>  <Score>  (4) 
0.1646

>  <Reaction_Score>  (4) 
0.1759

>  <Bond_Score>  (4) 
0.154

>  <Rank>  (4) 
3

>  <Subtype>  (4) 
REACTION

>  <Subtype_Scores>  (4) 
[REACTION] SOM_score: 0.1540, Reaction_score: 0.1759, Score: 0.1646


$$$$

     RDKit          2D

 56 60  0  0  0  0  0  0  0  0999 V2000
    0.0758    7.0336    0.0000 C   0  0  0  0  0  0  0  0  0 11  0  0
    1.1600    5.9970    0.0000 C   0  0  0  0  0  0  0  0  0 32  0  0
    1.9293    7.2847    0.0000 O   0  0  0  0  0  0  0  0  0 33  0  0
   -0.0919    5.1707    0.0000 C   0  0  0  0  0  0  0  0  0 20  0  0
    2.5865    5.5335    0.0000 N   0  0  0  0  0  0  0  0  0  8  0  0
    0.9725    8.2361    0.0000 H   0  0  0  0  0  0  0  0  0  0  0  0
   -0.5413    6.5289    0.0000 H   0  0  0  0  0  0  0  0  0  0  0  0
   -1.0084    8.0702    0.0000 H   0  0  0  0  0  0  0  0  0  0  0  0
   -0.2264    3.6767    0.0000 C   0  0  0  0  0  0  0  0  0 21  0  0
   -1.5918    5.1520    0.0000 H   0  0  0  0  0  0  0  0  0  0  0  0
   -0.4609    5.8773    0.0000 H   0  0  0  0  0  0  0  0  0  0  0  0
    0.8578    2.6401    0.0000 N   0  0  0  0  0  0  0  0  0  7  0  0
   -0.9957    2.3890    0.0000 H   0  0  0  0  0  0  0  0  0  0  0  0
   -1.6988    3.9629    0.0000 H   0  0  0  0  0  0  0  0  0  0  0  0
    0.3943    1.2135    0.0000 C   0  0  0  0  0  0  0  0  0 27  0  0
    2.3442    2.8415    0.0000 C   0  0  0  0  0  0  0  0  0 22  0  0
    1.2760    0.0000    0.0000 O   0  0  0  0  0  0  0  0  0  3  0  0
   -1.0323    0.7500    0.0000 N   0  0  0  0  0  0  0  0  0  4  0  0
    3.1136    4.1291    0.0000 C   0  0  0  0  0  0  0  0  0 23  0  0
    3.7037    2.2075    0.0000 H   0  0  0  0  0  0  0  0  0  0  0  0
    2.2098    1.3475    0.0000 H   0  0  0  0  0  0  0  0  0  0  0  0
    0.3943   -1.2135    0.0000 C   0  0  0  0  0  0  0  0  0 31  0  0
   -1.0323   -0.7500    0.0000 C   0  0  0  0  0  0  0  0  0 30  0  0
    4.3655    4.9555    0.0000 H   0  0  0  0  0  0  0  0  0  0  0  0
    4.1978    3.0925    0.0000 H   0  0  0  0  0  0  0  0  0  0  0  0
    0.7062   -2.6807    0.0000 C   0  0  0  0  0  0  0  0  0 19  0  0
   -2.1470   -1.7537    0.0000 C   0  0  0  0  0  0  0  0  0 18  0  0
   -0.4086   -3.6844    0.0000 C   0  0  0  0  0  0  0  0  0 15  0  0
    2.1328   -3.1443    0.0000 H   0  0  0  0  0  0  0  0  0  0  0  0
   -1.8351   -3.2209    0.0000 C   0  0  0  0  0  0  0  0  0 26  0  0
   -3.5736   -1.2902    0.0000 H   0  0  0  0  0  0  0  0  0  0  0  0
   -0.0967   -5.1517    0.0000 H   0  0  0  0  0  0  0  0  0  0  0  0
   -2.9499   -4.2246    0.0000 Cl  0  0  0  0  0  0  0  0  0  1  0  0
    3.6231    6.6177    0.0000 C   0  0  0  0  0  0  0  0  0 24  0  0
    3.2025    8.0575    0.0000 O   0  0  0  0  0  0  0  0  0  2  0  0
    5.0804    6.2621    0.0000 C   0  0  0  0  0  0  0  0  0 28  0  0
    5.5010    4.8222    0.0000 C   0  0  0  0  0  0  0  0  0 16  0  0
    6.1170    7.3462    0.0000 C   0  0  0  0  0  0  0  0  0 29  0  0
    6.9582    4.4666    0.0000 C   0  0  0  0  0  0  0  0  0 25  0  0
    4.6043    3.6198    0.0000 H   0  0  0  0  0  0  0  0  0  0  0  0
    7.5742    6.9906    0.0000 C   0  0  0  0  0  0  0  0  0 17  0  0
    5.6963    8.7861    0.0000 N   0  0  0  0  0  0  0  0  0  9  0  0
    7.3789    3.0268    0.0000 C   0  0  0  0  0  0  0  0  0 10  0  0
    7.9948    5.5508    0.0000 C   0  0  0  0  0  0  0  0  0 14  0  0
    8.6108    8.0748    0.0000 H   0  0  0  0  0  0  0  0  0  0  0  0
    4.2842    9.2921    0.0000 N   0  0  0  0  0  0  0  0  0  5  0  0
    6.6139    9.9727    0.0000 N   0  0  0  0  0  0  0  0  0  6  0  0
    8.8187    3.4475    0.0000 H   0  0  0  0  0  0  0  0  0  0  0  0
    5.9391    2.6062    0.0000 H   0  0  0  0  0  0  0  0  0  0  0  0
    7.7995    1.5870    0.0000 H   0  0  0  0  0  0  0  0  0  0  0  0
    9.4521    5.1952    0.0000 H   0  0  0  0  0  0  0  0  0  0  0  0
    4.3291   10.7914    0.0000 C   0  0  0  0  0  0  0  0  0 12  0  0
    5.7689   11.2120    0.0000 C   0  0  0  0  0  0  0  0  0 13  0  0
    3.1425   11.7090    0.0000 H   0  0  0  0  0  0  0  0  0  0  0  0
    6.2749   12.6241    0.0000 H   0  0  0  0  0  0  0  0  0  0  0  0
    1.3640    8.6741    0.0000 H   0  0  0  0  0  0  0  0  0  0  0  0
  1  2  1  0
  2  3  1  6
  2  4  1  0
  2  5  1  0
  1  6  1  0
  1  7  1  0
  1  8  1  0
  9  4  1  0
  4 10  1  0
  4 11  1  0
 12  9  1  0
  9 13  1  0
  9 14  1  0
 15 12  1  0
 16 12  1  0
 17 15  1  0
 15 18  2  0
 19 16  1  0
 16 20  1  0
 16 21  1  0
 22 17  1  0
 18 23  1  0
  5 19  1  0
 19 24  1  0
 19 25  1  0
 26 22  2  0
 23 22  1  0
 23 27  2  0
 28 26  1  0
 26 29  1  0
 27 30  1  0
 27 31  1  0
 30 28  2  0
 28 32  1  0
 33 30  1  0
  5 34  1  0
 34 35  2  0
 34 36  1  0
 36 37  2  0
 38 36  1  0
 37 39  1  0
 37 40  1  0
 41 38  2  0
 38 42  1  0
 39 43  1  0
 39 44  2  0
 44 41  1  0
 41 45  1  0
 42 46  1  0
 47 42  1  0
 43 48  1  0
 43 49  1  0
 43 50  1  0
 44 51  1  0
 46 52  2  0
 53 47  2  0
 52 53  1  0
 52 54  1  0
 53 55  1  0
  3 56  1  0
M  END
>  <SMILES>  (5) 
Cc1ccc(-n2nccn2)c(C(=O)N2CCN(c3nc4cc(Cl)ccc4o3)CCC2(C)O)c1

>  <Molecular Weight>  (5) 
466.9

>  <Substrate_ID>  (5) 
MOL0044

>  <Substrate>  (5) 


>  <Substrate_SMILES>  (5) 
Cc1ccc(-n2nccn2)c(C(=O)N2CCN(c3nc4cc(Cl)ccc4o3)CCC2C)c1

>  <Reaction>  (5) 
aliphatic_hydroxylation_(tert_carbon_next_to_SP2),aliphatic hydroxylation

>  <Score>  (5) 
0.1571

>  <Reaction_Score>  (5) 
0.0901

>  <Bond_Score>  (5) 
0.2739

>  <Rank>  (5) 
4

>  <Subtype>  (5) 
REACTION

>  <Subtype_Scores>  (5) 
[REACTION] SOM_score: 0.2739, Reaction_score: 0.0901, Score: 0.1571


$$$$

     RDKit          2D

 56 60  0  0  0  0  0  0  0  0999 V2000
    0.7062    2.6807    0.0000 C   0  0  0  0  0  0  0  0  0 19  0  0
    2.1328    3.1443    0.0000 O   0  0  0  0  0  0  0  0  0 33  0  0
    2.4446    4.6115    0.0000 H   0  0  0  0  0  0  0  0  0  0  0  0
   -0.4086    3.6844    0.0000 C   0  0  0  0  0  0  0  0  0 15  0  0
    0.3943    1.2135    0.0000 C   0  0  0  0  0  0  0  0  0 31  0  0
   -1.8351    3.2209    0.0000 C   0  0  0  0  0  0  0  0  0 26  0  0
   -0.0967    5.1517    0.0000 H   0  0  0  0  0  0  0  0  0  0  0  0
    1.2760    0.0000    0.0000 O   0  0  0  0  0  0  0  0  0  3  0  0
   -1.0323    0.7500    0.0000 C   0  0  0  0  0  0  0  0  0 30  0  0
   -2.9499    4.2246    0.0000 Cl  0  0  0  0  0  0  0  0  0  1  0  0
   -2.1470    1.7537    0.0000 C   0  0  0  0  0  0  0  0  0 18  0  0
    0.3943   -1.2135    0.0000 C   0  0  0  0  0  0  0  0  0 27  0  0
   -1.0323   -0.7500    0.0000 N   0  0  0  0  0  0  0  0  0  4  0  0
   -3.5736    1.2902    0.0000 H   0  0  0  0  0  0  0  0  0  0  0  0
    0.8578   -2.6401    0.0000 N   0  0  0  0  0  0  0  0  0  7  0  0
    2.3442   -2.8415    0.0000 C   0  0  0  0  0  0  0  0  0 21  0  0
   -0.2264   -3.6767    0.0000 C   0  0  0  0  0  0  0  0  0 22  0  0
    3.1136   -4.1291    0.0000 C   0  0  0  0  0  0  0  0  0 20  0  0
    2.2098   -1.3475    0.0000 H   0  0  0  0  0  0  0  0  0  0  0  0
    3.7037   -2.2075    0.0000 H   0  0  0  0  0  0  0  0  0  0  0  0
   -0.0919   -5.1707    0.0000 C   0  0  0  0  0  0  0  0  0 23  0  0
   -1.6988   -3.9629    0.0000 H   0  0  0  0  0  0  0  0  0  0  0  0
   -0.9957   -2.3890    0.0000 H   0  0  0  0  0  0  0  0  0  0  0  0
    2.5865   -5.5335    0.0000 C   0  0  0  0  0  0  0  0  0 32  0  0
    4.3161   -3.2324    0.0000 H   0  0  0  0  0  0  0  0  0  0  0  0
    3.8275   -4.4839    0.0000 H   0  0  0  0  0  0  0  0  0  0  0  0
    1.1600   -5.9970    0.0000 N   0  0  0  0  0  0  0  0  0  8  0  0
   -0.6190   -6.5750    0.0000 H   0  0  0  0  0  0  0  0  0  0  0  0
   -1.5783   -4.9693    0.0000 H   0  0  0  0  0  0  0  0  0  0  0  0
    4.0730   -5.7348    0.0000 C   0  0  0  0  0  0  0  0  0 11  0  0
    2.7210   -7.0274    0.0000 H   0  0  0  0  0  0  0  0  0  0  0  0
    0.9586   -7.4834    0.0000 C   0  0  0  0  0  0  0  0  0 24  0  0
    5.5594   -5.9362    0.0000 H   0  0  0  0  0  0  0  0  0  0  0  0
    3.8716   -7.2213    0.0000 H   0  0  0  0  0  0  0  0  0  0  0  0
    4.2755   -4.9638    0.0000 H   0  0  0  0  0  0  0  0  0  0  0  0
    2.1452   -8.4010    0.0000 O   0  0  0  0  0  0  0  0  0  2  0  0
   -0.4294   -8.0523    0.0000 C   0  0  0  0  0  0  0  0  0 28  0  0
   -1.6160   -7.1347    0.0000 C   0  0  0  0  0  0  0  0  0 16  0  0
   -0.6307   -9.5387    0.0000 C   0  0  0  0  0  0  0  0  0 29  0  0
   -3.0039   -7.7035    0.0000 C   0  0  0  0  0  0  0  0  0 25  0  0
   -1.5973   -5.6348    0.0000 H   0  0  0  0  0  0  0  0  0  0  0  0
   -2.0187  -10.1075    0.0000 C   0  0  0  0  0  0  0  0  0 17  0  0
    0.5559  -10.4563    0.0000 N   0  0  0  0  0  0  0  0  0  9  0  0
   -4.1905   -6.7859    0.0000 C   0  0  0  0  0  0  0  0  0 10  0  0
   -3.2053   -9.1900    0.0000 C   0  0  0  0  0  0  0  0  0 14  0  0
   -2.2200  -11.5940    0.0000 H   0  0  0  0  0  0  0  0  0  0  0  0
    1.9957  -10.0356    0.0000 N   0  0  0  0  0  0  0  0  0  5  0  0
    0.5110  -11.9556    0.0000 N   0  0  0  0  0  0  0  0  0  6  0  0
   -5.3771   -5.8684    0.0000 H   0  0  0  0  0  0  0  0  0  0  0  0
   -5.1081   -7.9725    0.0000 H   0  0  0  0  0  0  0  0  0  0  0  0
   -3.2729   -5.5993    0.0000 H   0  0  0  0  0  0  0  0  0  0  0  0
   -4.5932   -9.7588    0.0000 H   0  0  0  0  0  0  0  0  0  0  0  0
    2.8407  -11.2750    0.0000 C   0  0  0  0  0  0  0  0  0 12  0  0
    1.9231  -12.4616    0.0000 C   0  0  0  0  0  0  0  0  0 13  0  0
    4.3400  -11.3199    0.0000 H   0  0  0  0  0  0  0  0  0  0  0  0
    2.3437  -13.9014    0.0000 H   0  0  0  0  0  0  0  0  0  0  0  0
  1  2  1  0
  2  3  1  0
  4  1  2  0
  1  5  1  0
  6  4  1  0
  4  7  1  0
  5  8  1  0
  9  5  2  0
 10  6  1  0
 11  6  2  0
  8 12  1  0
 13  9  1  0
  9 11  1  0
 11 14  1  0
 12 15  1  0
 12 13  2  0
 15 16  1  0
 17 15  1  0
 16 18  1  0
 16 19  1  0
 16 20  1  0
 21 17  1  0
 17 22  1  0
 17 23  1  0
 18 24  1  0
 18 25  1  0
 18 26  1  0
 27 21  1  0
 21 28  1  0
 21 29  1  0
 24 30  1  0
 24 27  1  0
 24 31  1  6
 27 32  1  0
 30 33  1  0
 30 34  1  0
 30 35  1  0
 32 36  2  0
 32 37  1  0
 37 38  2  0
 39 37  1  0
 38 40  1  0
 38 41  1  0
 42 39  2  0
 39 43  1  0
 40 44  1  0
 40 45  2  0
 45 42  1  0
 42 46  1  0
 43 47  1  0
 48 43  1  0
 44 49  1  0
 44 50  1  0
 44 51  1  0
 45 52  1  0
 47 53  2  0
 54 48  2  0
 53 54  1  0
 53 55  1  0
 54 56  1  0
M  END
>  <SMILES>  (6) 
Cc1ccc(-n2nccn2)c(C(=O)N2CCN(c3nc4cc(Cl)cc(O)c4o3)CCC2C)c1

>  <Molecular Weight>  (6) 
466.9

>  <Substrate_ID>  (6) 
MOL0044

>  <Substrate>  (6) 


>  <Substrate_SMILES>  (6) 
Cc1ccc(-n2nccn2)c(C(=O)N2CCN(c3nc4cc(Cl)ccc4o3)CCC2C)c1

>  <Reaction>  (6) 
aromatic hydroxylation

>  <Score>  (6) 
0.1227

>  <Reaction_Score>  (6) 
0.1236

>  <Bond_Score>  (6) 
0.1217

>  <Rank>  (6) 
5

>  <Subtype>  (6) 
REACTION

>  <Subtype_Scores>  (6) 
[REACTION] SOM_score: 0.1217, Reaction_score: 0.1236, Score: 0.1227


$$$$

     RDKit          2D

 56 60  0  0  0  0  0  0  0  0999 V2000
    2.3442    2.8415    0.0000 C   0  0  0  0  0  0  0  0  0 22  0  0
    3.1136    4.1291    0.0000 C   0  0  0  0  0  0  0  0  0 23  0  0
    4.3655    4.9555    0.0000 O   0  0  0  0  0  0  0  0  0 33  0  0
    2.5865    5.5335    0.0000 N   0  0  0  0  0  0  0  0  0  8  0  0
    0.8578    2.6401    0.0000 N   0  0  0  0  0  0  0  0  0  7  0  0
    3.7037    2.2075    0.0000 H   0  0  0  0  0  0  0  0  0  0  0  0
    2.2098    1.3475    0.0000 H   0  0  0  0  0  0  0  0  0  0  0  0
    0.3943    1.2135    0.0000 C   0  0  0  0  0  0  0  0  0 27  0  0
   -0.2264    3.6767    0.0000 C   0  0  0  0  0  0  0  0  0 21  0  0
    1.2760    0.0000    0.0000 O   0  0  0  0  0  0  0  0  0  3  0  0
   -1.0323    0.7500    0.0000 N   0  0  0  0  0  0  0  0  0  4  0  0
   -0.0919    5.1707    0.0000 C   0  0  0  0  0  0  0  0  0 20  0  0
   -0.9957    2.3890    0.0000 H   0  0  0  0  0  0  0  0  0  0  0  0
   -1.6988    3.9629    0.0000 H   0  0  0  0  0  0  0  0  0  0  0  0
    0.3943   -1.2135    0.0000 C   0  0  0  0  0  0  0  0  0 31  0  0
   -1.0323   -0.7500    0.0000 C   0  0  0  0  0  0  0  0  0 30  0  0
    1.1600    5.9970    0.0000 C   0  0  0  0  0  0  0  0  0 32  0  0
   -1.5918    5.1520    0.0000 H   0  0  0  0  0  0  0  0  0  0  0  0
   -0.4609    5.8773    0.0000 H   0  0  0  0  0  0  0  0  0  0  0  0
    0.7062   -2.6807    0.0000 C   0  0  0  0  0  0  0  0  0 19  0  0
   -2.1470   -1.7537    0.0000 C   0  0  0  0  0  0  0  0  0 18  0  0
    0.0758    7.0336    0.0000 C   0  0  0  0  0  0  0  0  0 11  0  0
    1.9293    7.2847    0.0000 H   0  0  0  0  0  0  0  0  0  0  0  0
   -0.4086   -3.6844    0.0000 C   0  0  0  0  0  0  0  0  0 15  0  0
    2.1328   -3.1443    0.0000 H   0  0  0  0  0  0  0  0  0  0  0  0
   -1.8351   -3.2209    0.0000 C   0  0  0  0  0  0  0  0  0 26  0  0
   -3.5736   -1.2902    0.0000 H   0  0  0  0  0  0  0  0  0  0  0  0
   -1.2270    7.7770    0.0000 H   0  0  0  0  0  0  0  0  0  0  0  0
    1.1124    8.1178    0.0000 H   0  0  0  0  0  0  0  0  0  0  0  0
   -0.4008    6.3946    0.0000 H   0  0  0  0  0  0  0  0  0  0  0  0
   -0.0967   -5.1517    0.0000 H   0  0  0  0  0  0  0  0  0  0  0  0
   -2.9499   -4.2246    0.0000 Cl  0  0  0  0  0  0  0  0  0  1  0  0
    4.3161    3.2324    0.0000 H   0  0  0  0  0  0  0  0  0  0  0  0
    3.6231    6.6177    0.0000 C   0  0  0  0  0  0  0  0  0 24  0  0
    5.0804    6.2621    0.0000 O   0  0  0  0  0  0  0  0  0  2  0  0
    3.2025    8.0575    0.0000 C   0  0  0  0  0  0  0  0  0 28  0  0
    4.2391    9.1417    0.0000 C   0  0  0  0  0  0  0  0  0 16  0  0
    1.7453    8.4131    0.0000 C   0  0  0  0  0  0  0  0  0 29  0  0
    3.8184   10.5815    0.0000 C   0  0  0  0  0  0  0  0  0 25  0  0
    5.6963    8.7861    0.0000 H   0  0  0  0  0  0  0  0  0  0  0  0
    1.3246    9.8529    0.0000 C   0  0  0  0  0  0  0  0  0 17  0  0
    0.7087    7.3289    0.0000 N   0  0  0  0  0  0  0  0  0  9  0  0
    4.8550   11.6657    0.0000 C   0  0  0  0  0  0  0  0  0 10  0  0
    2.3612   10.9371    0.0000 C   0  0  0  0  0  0  0  0  0 14  0  0
   -0.1326   10.2085    0.0000 H   0  0  0  0  0  0  0  0  0  0  0  0
    0.9765    5.8530    0.0000 N   0  0  0  0  0  0  0  0  0  5  0  0
   -0.7778    7.5303    0.0000 N   0  0  0  0  0  0  0  0  0  6  0  0
    5.8916   12.7499    0.0000 H   0  0  0  0  0  0  0  0  0  0  0  0
    3.7708   12.7023    0.0000 H   0  0  0  0  0  0  0  0  0  0  0  0
    5.9392   10.6291    0.0000 H   0  0  0  0  0  0  0  0  0  0  0  0
    1.9406   12.3769    0.0000 H   0  0  0  0  0  0  0  0  0  0  0  0
   -0.3444    5.1422    0.0000 C   0  0  0  0  0  0  0  0  0 12  0  0
   -1.4286    6.1788    0.0000 C   0  0  0  0  0  0  0  0  0 13  0  0
   -0.8994    3.7487    0.0000 H   0  0  0  0  0  0  0  0  0  0  0  0
   -2.9045    5.9110    0.0000 H   0  0  0  0  0  0  0  0  0  0  0  0
    5.7070    4.2845    0.0000 H   0  0  0  0  0  0  0  0  0  0  0  0
  1  2  1  0
  2  3  1  0
  2  4  1  0
  1  5  1  0
  1  6  1  0
  1  7  1  0
  8  5  1  0
  5  9  1  0
 10  8  1  0
  8 11  2  0
  9 12  1  0
  9 13  1  0
  9 14  1  0
 15 10  1  0
 11 16  1  0
 12 17  1  0
 12 18  1  0
 12 19  1  0
 20 15  2  0
 16 15  1  0
 16 21  2  0
 17 22  1  0
 17  4  1  0
 17 23  1  6
 24 20  1  0
 20 25  1  0
 21 26  1  0
 21 27  1  0
 22 28  1  0
 22 29  1  0
 22 30  1  0
 26 24  2  0
 24 31  1  0
 32 26  1  0
  2 33  1  0
  4 34  1  0
 34 35  2  0
 34 36  1  0
 36 37  2  0
 38 36  1  0
 37 39  1  0
 37 40  1  0
 41 38  2  0
 38 42  1  0
 39 43  1  0
 39 44  2  0
 44 41  1  0
 41 45  1  0
 42 46  1  0
 47 42  1  0
 43 48  1  0
 43 49  1  0
 43 50  1  0
 44 51  1  0
 46 52  2  0
 53 47  2  0
 52 53  1  0
 52 54  1  0
 53 55  1  0
  3 56  1  0
M  END
>  <SMILES>  (7) 
Cc1ccc(-n2nccn2)c(C(=O)N2C(C)CCN(c3nc4cc(Cl)ccc4o3)CC2O)c1

>  <Molecular Weight>  (7) 
466.9

>  <Substrate_ID>  (7) 
MOL0044

>  <Substrate>  (7) 


>  <Substrate_SMILES>  (7) 
Cc1ccc(-n2nccn2)c(C(=O)N2CCN(c3nc4cc(Cl)ccc4o3)CCC2C)c1

>  <Reaction>  (7) 
aliphatic_hydroxylation_(sec_carbon_next_to_SP2,in_a_ring),aliphatic hydroxylation

>  <Score>  (7) 
0.1213

>  <Reaction_Score>  (7) 
0.1044

>  <Bond_Score>  (7) 
0.1409

>  <Rank>  (7) 
6

>  <Subtype>  (7) 
REACTION

>  <Subtype_Scores>  (7) 
[REACTION] SOM_score: 0.1409, Reaction_score: 0.1044, Score: 0.1213


$$$$

     RDKit          2D

 54 58  0  0  0  0  0  0  0  0999 V2000
    2.3442    2.8415    0.0000 C   0  0  0  0  0  0  0  0  0 22  0  0
    3.1136    4.1291    0.0000 C   0  0  0  0  0  0  0  0  0 23  0  0
    4.6076    3.9947    0.0000 O   0  0  0  0  0  0  0  0  0 33  0  0
    2.5865    5.5335    0.0000 N   0  0  0  0  0  0  0  0  0  8  0  0
    0.8578    2.6401    0.0000 N   0  0  0  0  0  0  0  0  0  7  0  0
    3.7708    2.3779    0.0000 H   0  0  0  0  0  0  0  0  0  0  0  0
    2.2098    1.3475    0.0000 H   0  0  0  0  0  0  0  0  0  0  0  0
    0.3943    1.2135    0.0000 C   0  0  0  0  0  0  0  0  0 27  0  0
   -0.2264    3.6767    0.0000 C   0  0  0  0  0  0  0  0  0 21  0  0
    1.2760    0.0000    0.0000 O   0  0  0  0  0  0  0  0  0  3  0  0
   -1.0323    0.7500    0.0000 N   0  0  0  0  0  0  0  0  0  4  0  0
   -0.0919    5.1707    0.0000 C   0  0  0  0  0  0  0  0  0 20  0  0
   -0.9957    2.3890    0.0000 H   0  0  0  0  0  0  0  0  0  0  0  0
   -1.6988    3.9629    0.0000 H   0  0  0  0  0  0  0  0  0  0  0  0
    0.3943   -1.2135    0.0000 C   0  0  0  0  0  0  0  0  0 31  0  0
   -1.0323   -0.7500    0.0000 C   0  0  0  0  0  0  0  0  0 30  0  0
    1.1600    5.9970    0.0000 C   0  0  0  0  0  0  0  0  0 32  0  0
   -1.5918    5.1520    0.0000 H   0  0  0  0  0  0  0  0  0  0  0  0
   -0.4609    5.8773    0.0000 H   0  0  0  0  0  0  0  0  0  0  0  0
    0.7062   -2.6807    0.0000 C   0  0  0  0  0  0  0  0  0 19  0  0
   -2.1470   -1.7537    0.0000 C   0  0  0  0  0  0  0  0  0 18  0  0
    0.0758    7.0336    0.0000 C   0  0  0  0  0  0  0  0  0 11  0  0
    1.9293    7.2847    0.0000 H   0  0  0  0  0  0  0  0  0  0  0  0
   -0.4086   -3.6844    0.0000 C   0  0  0  0  0  0  0  0  0 15  0  0
    2.1328   -3.1443    0.0000 H   0  0  0  0  0  0  0  0  0  0  0  0
   -1.8351   -3.2209    0.0000 C   0  0  0  0  0  0  0  0  0 26  0  0
   -3.5736   -1.2902    0.0000 H   0  0  0  0  0  0  0  0  0  0  0  0
   -1.2270    7.7770    0.0000 H   0  0  0  0  0  0  0  0  0  0  0  0
    1.1124    8.1178    0.0000 H   0  0  0  0  0  0  0  0  0  0  0  0
   -0.4008    6.3946    0.0000 H   0  0  0  0  0  0  0  0  0  0  0  0
   -0.0967   -5.1517    0.0000 H   0  0  0  0  0  0  0  0  0  0  0  0
   -2.9499   -4.2246    0.0000 Cl  0  0  0  0  0  0  0  0  0  1  0  0
    3.6231    6.6177    0.0000 C   0  0  0  0  0  0  0  0  0 24  0  0
    5.0804    6.2621    0.0000 O   0  0  0  0  0  0  0  0  0  2  0  0
    3.2025    8.0575    0.0000 C   0  0  0  0  0  0  0  0  0 28  0  0
    4.2391    9.1417    0.0000 C   0  0  0  0  0  0  0  0  0 16  0  0
    1.7453    8.4131    0.0000 C   0  0  0  0  0  0  0  0  0 29  0  0
    3.8184   10.5815    0.0000 C   0  0  0  0  0  0  0  0  0 25  0  0
    5.6963    8.7861    0.0000 H   0  0  0  0  0  0  0  0  0  0  0  0
    1.3246    9.8529    0.0000 C   0  0  0  0  0  0  0  0  0 17  0  0
    0.7087    7.3289    0.0000 N   0  0  0  0  0  0  0  0  0  9  0  0
    4.8550   11.6657    0.0000 C   0  0  0  0  0  0  0  0  0 10  0  0
    2.3612   10.9371    0.0000 C   0  0  0  0  0  0  0  0  0 14  0  0
   -0.1326   10.2085    0.0000 H   0  0  0  0  0  0  0  0  0  0  0  0
    0.9765    5.8530    0.0000 N   0  0  0  0  0  0  0  0  0  5  0  0
   -0.7778    7.5303    0.0000 N   0  0  0  0  0  0  0  0  0  6  0  0
    5.8916   12.7499    0.0000 H   0  0  0  0  0  0  0  0  0  0  0  0
    3.7708   12.7023    0.0000 H   0  0  0  0  0  0  0  0  0  0  0  0
    5.9392   10.6291    0.0000 H   0  0  0  0  0  0  0  0  0  0  0  0
    1.9406   12.3769    0.0000 H   0  0  0  0  0  0  0  0  0  0  0  0
   -0.3444    5.1422    0.0000 C   0  0  0  0  0  0  0  0  0 12  0  0
   -1.4286    6.1788    0.0000 C   0  0  0  0  0  0  0  0  0 13  0  0
   -0.8994    3.7487    0.0000 H   0  0  0  0  0  0  0  0  0  0  0  0
   -2.9045    5.9110    0.0000 H   0  0  0  0  0  0  0  0  0  0  0  0
  1  2  1  0
  2  3  2  0
  2  4  1  0
  1  5  1  0
  1  6  1  0
  1  7  1  0
  8  5  1  0
  5  9  1  0
 10  8  1  0
  8 11  2  0
  9 12  1  0
  9 13  1  0
  9 14  1  0
 15 10  1  0
 11 16  1  0
 12 17  1  0
 12 18  1  0
 12 19  1  0
 20 15  2  0
 16 15  1  0
 16 21  2  0
 17 22  1  0
 17  4  1  0
 17 23  1  6
 24 20  1  0
 20 25  1  0
 21 26  1  0
 21 27  1  0
 22 28  1  0
 22 29  1  0
 22 30  1  0
 26 24  2  0
 24 31  1  0
 32 26  1  0
  4 33  1  0
 33 34  2  0
 33 35  1  0
 35 36  2  0
 37 35  1  0
 36 38  1  0
 36 39  1  0
 40 37  2  0
 37 41  1  0
 38 42  1  0
 38 43  2  0
 43 40  1  0
 40 44  1  0
 41 45  1  0
 46 41  1  0
 42 47  1  0
 42 48  1  0
 42 49  1  0
 43 50  1  0
 45 51  2  0
 52 46  2  0
 51 52  1  0
 51 53  1  0
 52 54  1  0
M  END
>  <SMILES>  (8) 
Cc1ccc(-n2nccn2)c(C(=O)N2C(=O)CN(c3nc4cc(Cl)ccc4o3)CCC2C)c1

>  <Molecular Weight>  (8) 
464.9

>  <Substrate_ID>  (8) 
MOL0044

>  <Substrate>  (8) 


>  <Substrate_SMILES>  (8) 
Cc1ccc(-n2nccn2)c(C(=O)N2CCN(c3nc4cc(Cl)ccc4o3)CCC2C)c1

>  <Reaction>  (8) 
oxidation_(amine_in_a_ring)

>  <Score>  (8) 
0.1213

>  <Reaction_Score>  (8) 
0.1044

>  <Bond_Score>  (8) 
0.1409

>  <Rank>  (8) 
6

>  <Subtype>  (8) 
REACTION

>  <Subtype_Scores>  (8) 
[REACTION] SOM_score: 0.1409, Reaction_score: 0.1044, Score: 0.1213


$$$$

     RDKit          2D

 56 60  0  0  0  0  0  0  0  0999 V2000
   -0.0919    5.1707    0.0000 C   0  0  0  0  0  0  0  0  0 23  0  0
   -0.2264    3.6767    0.0000 C   0  0  0  0  0  0  0  0  0 22  0  0
   -0.9957    2.3890    0.0000 O   0  0  0  0  0  0  0  0  0 33  0  0
    0.8578    2.6401    0.0000 N   0  0  0  0  0  0  0  0  0  7  0  0
    1.1600    5.9970    0.0000 N   0  0  0  0  0  0  0  0  0  8  0  0
   -1.5918    5.1520    0.0000 H   0  0  0  0  0  0  0  0  0  0  0  0
   -0.6190    6.5750    0.0000 H   0  0  0  0  0  0  0  0  0  0  0  0
    2.5865    5.5335    0.0000 C   0  0  0  0  0  0  0  0  0 32  0  0
    0.9586    7.4834    0.0000 C   0  0  0  0  0  0  0  0  0 24  0  0
    3.1136    4.1291    0.0000 C   0  0  0  0  0  0  0  0  0 20  0  0
    2.7210    7.0274    0.0000 C   0  0  0  0  0  0  0  0  0 11  0  0
    4.0730    5.7348    0.0000 H   0  0  0  0  0  0  0  0  0  0  0  0
   -0.4294    8.0523    0.0000 O   0  0  0  0  0  0  0  0  0  2  0  0
    2.1452    8.4010    0.0000 C   0  0  0  0  0  0  0  0  0 28  0  0
    2.3442    2.8415    0.0000 C   0  0  0  0  0  0  0  0  0 21  0  0
    4.4569    4.7967    0.0000 H   0  0  0  0  0  0  0  0  0  0  0  0
    4.3161    3.2324    0.0000 H   0  0  0  0  0  0  0  0  0  0  0  0
    2.9824    7.7805    0.0000 H   0  0  0  0  0  0  0  0  0  0  0  0
    4.1874    6.7119    0.0000 H   0  0  0  0  0  0  0  0  0  0  0  0
    1.7913    7.3502    0.0000 H   0  0  0  0  0  0  0  0  0  0  0  0
    3.5332    7.8322    0.0000 C   0  0  0  0  0  0  0  0  0 16  0  0
    1.9439    9.8874    0.0000 C   0  0  0  0  0  0  0  0  0 29  0  0
    3.7037    2.2075    0.0000 H   0  0  0  0  0  0  0  0  0  0  0  0
    2.2098    1.3475    0.0000 H   0  0  0  0  0  0  0  0  0  0  0  0
    4.7198    8.7498    0.0000 C   0  0  0  0  0  0  0  0  0 25  0  0
    4.0882    6.4387    0.0000 H   0  0  0  0  0  0  0  0  0  0  0  0
    3.1305   10.8050    0.0000 C   0  0  0  0  0  0  0  0  0 17  0  0
    0.5559   10.4563    0.0000 N   0  0  0  0  0  0  0  0  0  9  0  0
    6.1077    8.1809    0.0000 C   0  0  0  0  0  0  0  0  0 10  0  0
    4.5184   10.2362    0.0000 C   0  0  0  0  0  0  0  0  0 14  0  0
    2.9291   12.2915    0.0000 H   0  0  0  0  0  0  0  0  0  0  0  0
   -0.7201    9.6678    0.0000 N   0  0  0  0  0  0  0  0  0  5  0  0
    0.2003   11.9135    0.0000 N   0  0  0  0  0  0  0  0  0  6  0  0
    7.4957    7.6121    0.0000 H   0  0  0  0  0  0  0  0  0  0  0  0
    6.6766    9.5689    0.0000 H   0  0  0  0  0  0  0  0  0  0  0  0
    5.5389    6.7930    0.0000 H   0  0  0  0  0  0  0  0  0  0  0  0
    5.7050   11.1538    0.0000 H   0  0  0  0  0  0  0  0  0  0  0  0
   -1.8644   10.6377    0.0000 C   0  0  0  0  0  0  0  0  0 12  0  0
   -1.2955   12.0256    0.0000 C   0  0  0  0  0  0  0  0  0 13  0  0
   -3.3216   10.2820    0.0000 H   0  0  0  0  0  0  0  0  0  0  0  0
   -2.0841   13.3016    0.0000 H   0  0  0  0  0  0  0  0  0  0  0  0
   -1.6988    3.9629    0.0000 H   0  0  0  0  0  0  0  0  0  0  0  0
    0.3943    1.2135    0.0000 C   0  0  0  0  0  0  0  0  0 27  0  0
    1.2760    0.0000    0.0000 O   0  0  0  0  0  0  0  0  0  3  0  0
   -1.0323    0.7500    0.0000 N   0  0  0  0  0  0  0  0  0  4  0  0
    0.3943   -1.2135    0.0000 C   0  0  0  0  0  0  0  0  0 31  0  0
   -1.0323   -0.7500    0.0000 C   0  0  0  0  0  0  0  0  0 30  0  0
    0.7062   -2.6807    0.0000 C   0  0  0  0  0  0  0  0  0 19  0  0
   -2.1470   -1.7537    0.0000 C   0  0  0  0  0  0  0  0  0 18  0  0
   -0.4086   -3.6844    0.0000 C   0  0  0  0  0  0  0  0  0 15  0  0
    2.1328   -3.1443    0.0000 H   0  0  0  0  0  0  0  0  0  0  0  0
   -1.8351   -3.2209    0.0000 C   0  0  0  0  0  0  0  0  0 26  0  0
   -3.5736   -1.2902    0.0000 H   0  0  0  0  0  0  0  0  0  0  0  0
   -0.0967   -5.1517    0.0000 H   0  0  0  0  0  0  0  0  0  0  0  0
   -2.9499   -4.2246    0.0000 Cl  0  0  0  0  0  0  0  0  0  1  0  0
   -2.4955    2.4115    0.0000 H   0  0  0  0  0  0  0  0  0  0  0  0
  1  2  1  0
  2  3  1  0
  2  4  1  0
  5  1  1  0
  1  6  1  0
  1  7  1  0
  8  5  1  0
  5  9  1  0
 10  8  1  0
  8 11  1  0
  8 12  1  1
  9 13  2  0
  9 14  1  0
 15 10  1  0
 10 16  1  0
 10 17  1  0
 11 18  1  0
 11 19  1  0
 11 20  1  0
 14 21  2  0
 22 14  1  0
  4 15  1  0
 15 23  1  0
 15 24  1  0
 21 25  1  0
 21 26  1  0
 27 22  2  0
 22 28  1  0
 25 29  1  0
 25 30  2  0
 30 27  1  0
 27 31  1  0
 28 32  1  0
 33 28  1  0
 29 34  1  0
 29 35  1  0
 29 36  1  0
 30 37  1  0
 32 38  2  0
 39 33  2  0
 38 39  1  0
 38 40  1  0
 39 41  1  0
  2 42  1  0
 43  4  1  0
 44 43  1  0
 43 45  2  0
 46 44  1  0
 45 47  1  0
 48 46  2  0
 47 46  1  0
 47 49  2  0
 50 48  1  0
 48 51  1  0
 49 52  1  0
 49 53  1  0
 52 50  2  0
 50 54  1  0
 55 52  1  0
  3 56  1  0
M  END
>  <SMILES>  (9) 
Cc1ccc(-n2nccn2)c(C(=O)N2CC(O)N(c3nc4cc(Cl)ccc4o3)CCC2C)c1

>  <Molecular Weight>  (9) 
466.9

>  <Substrate_ID>  (9) 
MOL0044

>  <Substrate>  (9) 


>  <Substrate_SMILES>  (9) 
Cc1ccc(-n2nccn2)c(C(=O)N2CCN(c3nc4cc(Cl)ccc4o3)CCC2C)c1

>  <Reaction>  (9) 
aliphatic_hydroxylation_(sec_carbon_next_to_SP2,in_a_ring),aliphatic hydroxylation

>  <Score>  (9) 
0.1068

>  <Reaction_Score>  (9) 
0.0903

>  <Bond_Score>  (9) 
0.1263

>  <Rank>  (9) 
7

>  <Subtype>  (9) 
REACTION

>  <Subtype_Scores>  (9) 
[REACTION] SOM_score: 0.1263, Reaction_score: 0.0903, Score: 0.1068


$$$$

     RDKit          2D

 54 58  0  0  0  0  0  0  0  0999 V2000
   -0.0919    5.1707    0.0000 C   0  0  0  0  0  0  0  0  0 23  0  0
   -0.2264    3.6767    0.0000 C   0  0  0  0  0  0  0  0  0 22  0  0
   -1.6307    3.1496    0.0000 O   0  0  0  0  0  0  0  0  0 33  0  0
    0.8578    2.6401    0.0000 N   0  0  0  0  0  0  0  0  0  7  0  0
    1.1600    5.9970    0.0000 N   0  0  0  0  0  0  0  0  0  8  0  0
   -1.5783    4.9693    0.0000 H   0  0  0  0  0  0  0  0  0  0  0  0
   -0.6190    6.5750    0.0000 H   0  0  0  0  0  0  0  0  0  0  0  0
    2.5865    5.5335    0.0000 C   0  0  0  0  0  0  0  0  0 32  0  0
    0.9586    7.4834    0.0000 C   0  0  0  0  0  0  0  0  0 24  0  0
    3.1136    4.1291    0.0000 C   0  0  0  0  0  0  0  0  0 20  0  0
    2.7210    7.0274    0.0000 C   0  0  0  0  0  0  0  0  0 11  0  0
    4.0730    5.7348    0.0000 H   0  0  0  0  0  0  0  0  0  0  0  0
   -0.4294    8.0523    0.0000 O   0  0  0  0  0  0  0  0  0  2  0  0
    2.1452    8.4010    0.0000 C   0  0  0  0  0  0  0  0  0 28  0  0
    2.3442    2.8415    0.0000 C   0  0  0  0  0  0  0  0  0 21  0  0
    4.4569    4.7967    0.0000 H   0  0  0  0  0  0  0  0  0  0  0  0
    4.3161    3.2324    0.0000 H   0  0  0  0  0  0  0  0  0  0  0  0
    2.9824    7.7805    0.0000 H   0  0  0  0  0  0  0  0  0  0  0  0
    4.1874    6.7119    0.0000 H   0  0  0  0  0  0  0  0  0  0  0  0
    1.7913    7.3502    0.0000 H   0  0  0  0  0  0  0  0  0  0  0  0
    3.5332    7.8322    0.0000 C   0  0  0  0  0  0  0  0  0 16  0  0
    1.9439    9.8874    0.0000 C   0  0  0  0  0  0  0  0  0 29  0  0
    3.7037    2.2075    0.0000 H   0  0  0  0  0  0  0  0  0  0  0  0
    2.2098    1.3475    0.0000 H   0  0  0  0  0  0  0  0  0  0  0  0
    4.7198    8.7498    0.0000 C   0  0  0  0  0  0  0  0  0 25  0  0
    4.0882    6.4387    0.0000 H   0  0  0  0  0  0  0  0  0  0  0  0
    3.1305   10.8050    0.0000 C   0  0  0  0  0  0  0  0  0 17  0  0
    0.5559   10.4563    0.0000 N   0  0  0  0  0  0  0  0  0  9  0  0
    6.1077    8.1809    0.0000 C   0  0  0  0  0  0  0  0  0 10  0  0
    4.5184   10.2362    0.0000 C   0  0  0  0  0  0  0  0  0 14  0  0
    2.9291   12.2915    0.0000 H   0  0  0  0  0  0  0  0  0  0  0  0
   -0.7201    9.6678    0.0000 N   0  0  0  0  0  0  0  0  0  5  0  0
    0.2003   11.9135    0.0000 N   0  0  0  0  0  0  0  0  0  6  0  0
    7.4957    7.6121    0.0000 H   0  0  0  0  0  0  0  0  0  0  0  0
    6.6766    9.5689    0.0000 H   0  0  0  0  0  0  0  0  0  0  0  0
    5.5389    6.7930    0.0000 H   0  0  0  0  0  0  0  0  0  0  0  0
    5.7050   11.1538    0.0000 H   0  0  0  0  0  0  0  0  0  0  0  0
   -1.8644   10.6377    0.0000 C   0  0  0  0  0  0  0  0  0 12  0  0
   -1.2955   12.0256    0.0000 C   0  0  0  0  0  0  0  0  0 13  0  0
   -3.3216   10.2820    0.0000 H   0  0  0  0  0  0  0  0  0  0  0  0
   -2.0841   13.3016    0.0000 H   0  0  0  0  0  0  0  0  0  0  0  0
    0.3943    1.2135    0.0000 C   0  0  0  0  0  0  0  0  0 27  0  0
    1.2760    0.0000    0.0000 O   0  0  0  0  0  0  0  0  0  3  0  0
   -1.0323    0.7500    0.0000 N   0  0  0  0  0  0  0  0  0  4  0  0
    0.3943   -1.2135    0.0000 C   0  0  0  0  0  0  0  0  0 31  0  0
   -1.0323   -0.7500    0.0000 C   0  0  0  0  0  0  0  0  0 30  0  0
    0.7062   -2.6807    0.0000 C   0  0  0  0  0  0  0  0  0 19  0  0
   -2.1470   -1.7537    0.0000 C   0  0  0  0  0  0  0  0  0 18  0  0
   -0.4086   -3.6844    0.0000 C   0  0  0  0  0  0  0  0  0 15  0  0
    2.1328   -3.1443    0.0000 H   0  0  0  0  0  0  0  0  0  0  0  0
   -1.8351   -3.2209    0.0000 C   0  0  0  0  0  0  0  0  0 26  0  0
   -3.5736   -1.2902    0.0000 H   0  0  0  0  0  0  0  0  0  0  0  0
   -0.0967   -5.1517    0.0000 H   0  0  0  0  0  0  0  0  0  0  0  0
   -2.9499   -4.2246    0.0000 Cl  0  0  0  0  0  0  0  0  0  1  0  0
  1  2  1  0
  2  3  2  0
  2  4  1  0
  5  1  1  0
  1  6  1  0
  1  7  1  0
  8  5  1  0
  5  9  1  0
 10  8  1  0
  8 11  1  0
  8 12  1  1
  9 13  2  0
  9 14  1  0
 15 10  1  0
 10 16  1  0
 10 17  1  0
 11 18  1  0
 11 19  1  0
 11 20  1  0
 14 21  2  0
 22 14  1  0
  4 15  1  0
 15 23  1  0
 15 24  1  0
 21 25  1  0
 21 26  1  0
 27 22  2  0
 22 28  1  0
 25 29  1  0
 25 30  2  0
 30 27  1  0
 27 31  1  0
 28 32  1  0
 33 28  1  0
 29 34  1  0
 29 35  1  0
 29 36  1  0
 30 37  1  0
 32 38  2  0
 39 33  2  0
 38 39  1  0
 38 40  1  0
 39 41  1  0
 42  4  1  0
 43 42  1  0
 42 44  2  0
 45 43  1  0
 44 46  1  0
 47 45  2  0
 46 45  1  0
 46 48  2  0
 49 47  1  0
 47 50  1  0
 48 51  1  0
 48 52  1  0
 51 49  2  0
 49 53  1  0
 54 51  1  0
M  END
>  <SMILES>  (10) 
Cc1ccc(-n2nccn2)c(C(=O)N2CC(=O)N(c3nc4cc(Cl)ccc4o3)CCC2C)c1

>  <Molecular Weight>  (10) 
464.9

>  <Substrate_ID>  (10) 
MOL0044

>  <Substrate>  (10) 


>  <Substrate_SMILES>  (10) 
Cc1ccc(-n2nccn2)c(C(=O)N2CCN(c3nc4cc(Cl)ccc4o3)CCC2C)c1

>  <Reaction>  (10) 
oxidation_(amine_in_a_ring)

>  <Score>  (10) 
0.1068

>  <Reaction_Score>  (10) 
0.0903

>  <Bond_Score>  (10) 
0.1263

>  <Rank>  (10) 
7

>  <Subtype>  (10) 
REACTION

>  <Subtype_Scores>  (10) 
[REACTION] SOM_score: 0.1263, Reaction_score: 0.0903, Score: 0.1068


$$$$

     RDKit          2D

 56 60  0  0  0  0  0  0  0  0999 V2000
    1.1600    5.9970    0.0000 N   0  0  0  0  0  4  0  0  0  8  0  0
    1.7666    7.3689    0.0000 O   0  0  0  0  0  1  0  0  0 33  0  0
    2.5865    5.5335    0.0000 C   0  0  0  0  0  0  0  0  0 32  0  0
    0.0758    7.0336    0.0000 C   0  0  0  0  0  0  0  0  0 24  0  0
   -0.0919    5.1707    0.0000 C   0  0  0  0  0  0  0  0  0 23  0  0
   -0.7984    6.8907    0.0000 O   0  0  0  0  0  0  0  0  0  2  0  0
    0.4314    8.4908    0.0000 C   0  0  0  0  0  0  0  0  0 28  0  0
   -0.2264    3.6767    0.0000 C   0  0  0  0  0  0  0  0  0 22  0  0
   -1.5918    5.1520    0.0000 H   0  0  0  0  0  0  0  0  0  0  0  0
   -0.5019    5.9558    0.0000 H   0  0  0  0  0  0  0  0  0  0  0  0
    1.8712    8.9115    0.0000 C   0  0  0  0  0  0  0  0  0 16  0  0
   -0.6528    9.5274    0.0000 C   0  0  0  0  0  0  0  0  0 29  0  0
    0.8578    2.6401    0.0000 N   0  0  0  0  0  0  0  0  0  7  0  0
   -0.9957    2.3890    0.0000 H   0  0  0  0  0  0  0  0  0  0  0  0
   -1.6988    3.9629    0.0000 H   0  0  0  0  0  0  0  0  0  0  0  0
    2.2268   10.3687    0.0000 C   0  0  0  0  0  0  0  0  0 25  0  0
    3.0737    8.0148    0.0000 H   0  0  0  0  0  0  0  0  0  0  0  0
   -0.2972   10.9847    0.0000 C   0  0  0  0  0  0  0  0  0 17  0  0
   -2.0926    9.1068    0.0000 N   0  0  0  0  0  0  0  0  0  9  0  0
    0.3943    1.2135    0.0000 C   0  0  0  0  0  0  0  0  0 27  0  0
    2.3442    2.8415    0.0000 C   0  0  0  0  0  0  0  0  0 21  0  0
    3.6666   10.7894    0.0000 C   0  0  0  0  0  0  0  0  0 10  0  0
    1.1426   11.4053    0.0000 C   0  0  0  0  0  0  0  0  0 14  0  0
   -1.3814   12.0213    0.0000 H   0  0  0  0  0  0  0  0  0  0  0  0
   -2.5986    7.6947    0.0000 N   0  0  0  0  0  0  0  0  0  5  0  0
   -3.2792   10.0244    0.0000 N   0  0  0  0  0  0  0  0  0  6  0  0
    1.2760    0.0000    0.0000 O   0  0  0  0  0  0  0  0  0  3  0  0
   -1.0323    0.7500    0.0000 N   0  0  0  0  0  0  0  0  0  4  0  0
    3.1136    4.1291    0.0000 C   0  0  0  0  0  0  0  0  0 20  0  0
    3.7037    2.2075    0.0000 H   0  0  0  0  0  0  0  0  0  0  0  0
    2.2098    1.3475    0.0000 H   0  0  0  0  0  0  0  0  0  0  0  0
    3.2460   12.2292    0.0000 H   0  0  0  0  0  0  0  0  0  0  0  0
    4.0873    9.3495    0.0000 H   0  0  0  0  0  0  0  0  0  0  0  0
    5.1064   11.2100    0.0000 H   0  0  0  0  0  0  0  0  0  0  0  0
    1.4982   12.8625    0.0000 H   0  0  0  0  0  0  0  0  0  0  0  0
   -4.0980    7.7396    0.0000 C   0  0  0  0  0  0  0  0  0 12  0  0
   -4.5186    9.1794    0.0000 C   0  0  0  0  0  0  0  0  0 13  0  0
    0.3943   -1.2135    0.0000 C   0  0  0  0  0  0  0  0  0 31  0  0
   -1.0323   -0.7500    0.0000 C   0  0  0  0  0  0  0  0  0 30  0  0
    3.8275    4.4839    0.0000 H   0  0  0  0  0  0  0  0  0  0  0  0
    4.3161    3.2324    0.0000 H   0  0  0  0  0  0  0  0  0  0  0  0
   -5.0155    6.5530    0.0000 H   0  0  0  0  0  0  0  0  0  0  0  0
   -5.9307    9.6854    0.0000 H   0  0  0  0  0  0  0  0  0  0  0  0
    0.7062   -2.6807    0.0000 C   0  0  0  0  0  0  0  0  0 19  0  0
   -2.1470   -1.7537    0.0000 C   0  0  0  0  0  0  0  0  0 18  0  0
   -0.4086   -3.6844    0.0000 C   0  0  0  0  0  0  0  0  0 15  0  0
    2.1328   -3.1443    0.0000 H   0  0  0  0  0  0  0  0  0  0  0  0
   -1.8351   -3.2209    0.0000 C   0  0  0  0  0  0  0  0  0 26  0  0
   -3.5736   -1.2902    0.0000 H   0  0  0  0  0  0  0  0  0  0  0  0
   -0.0967   -5.1517    0.0000 H   0  0  0  0  0  0  0  0  0  0  0  0
   -2.9499   -4.2246    0.0000 Cl  0  0  0  0  0  0  0  0  0  1  0  0
    4.0730    5.7348    0.0000 C   0  0  0  0  0  0  0  0  0 11  0  0
    3.0785    6.9505    0.0000 H   0  0  0  0  0  0  0  0  0  0  0  0
    4.2755    4.9638    0.0000 H   0  0  0  0  0  0  0  0  0  0  0  0
    3.8716    7.2213    0.0000 H   0  0  0  0  0  0  0  0  0  0  0  0
    5.5594    5.9362    0.0000 H   0  0  0  0  0  0  0  0  0  0  0  0
  1  2  1  0
  1  3  1  0
  1  4  1  0
  1  5  1  0
  4  6  2  0
  4  7  1  0
  5  8  1  0
  5  9  1  0
  5 10  1  0
  7 11  2  0
 12  7  1  0
  8 13  1  0
  8 14  1  0
  8 15  1  0
 11 16  1  0
 11 17  1  0
 18 12  2  0
 12 19  1  0
 20 13  1  0
 13 21  1  0
 16 22  1  0
 16 23  2  0
 23 18  1  0
 18 24  1  0
 19 25  1  0
 26 19  1  0
 27 20  1  0
 20 28  2  0
 21 29  1  0
 21 30  1  0
 21 31  1  0
 22 32  1  0
 22 33  1  0
 22 34  1  0
 23 35  1  0
 25 36  2  0
 37 26  2  0
 38 27  1  0
 28 39  1  0
 29  3  1  0
 29 40  1  0
 29 41  1  0
 36 37  1  0
 36 42  1  0
 37 43  1  0
 44 38  2  0
 39 38  1  0
 39 45  2  0
 46 44  1  0
 44 47  1  0
 45 48  1  0
 45 49  1  0
 48 46  2  0
 46 50  1  0
 51 48  1  0
  3 52  1  0
  3 53  1  1
 52 54  1  0
 52 55  1  0
 52 56  1  0
M  CHG  2   1   1   2  -1
M  END
>  <SMILES>  (11) 
Cc1ccc(-n2nccn2)c(C(=O)[N+]2([O-])CCN(c3nc4cc(Cl)ccc4o3)CCC2C)c1

>  <Molecular Weight>  (11) 
466.9

>  <Substrate_ID>  (11) 
MOL0044

>  <Substrate>  (11) 


>  <Substrate_SMILES>  (11) 
Cc1ccc(-n2nccn2)c(C(=O)N2CCN(c3nc4cc(Cl)ccc4o3)CCC2C)c1

>  <Reaction>  (11) 
N-oxidation

>  <Score>  (11) 
0.0446

>  <Reaction_Score>  (11) 
0.008

>  <Bond_Score>  (11) 
0.2481

>  <Rank>  (11) 
8

>  <Subtype>  (11) 
REACTION

>  <Subtype_Scores>  (11) 
[REACTION] SOM_score: 0.2481, Reaction_score: 0.0080, Score: 0.0446


$$$$

     RDKit          2D

 56 60  0  0  0  0  0  0  0  0999 V2000
    0.8578    2.6401    0.0000 N   0  0  0  0  0  4  0  0  0  7  0  0
   -0.6414    2.5915    0.0000 O   0  0  0  0  0  1  0  0  0 33  0  0
    0.3943    1.2135    0.0000 C   0  0  0  0  0  0  0  0  0 27  0  0
    0.6565    4.1265    0.0000 C   0  0  0  0  0  0  0  0  0 21  0  0
    2.1455    1.8708    0.0000 C   0  0  0  0  0  0  0  0  0 22  0  0
    1.6931    5.2107    0.0000 C   0  0  0  0  0  0  0  0  0 20  0  0
   -0.8017    3.7746    0.0000 H   0  0  0  0  0  0  0  0  0  0  0  0
   -0.3163    5.2683    0.0000 H   0  0  0  0  0  0  0  0  0  0  0  0
    3.5498    2.3978    0.0000 C   0  0  0  0  0  0  0  0  0 23  0  0
    2.8131    0.5275    0.0000 H   0  0  0  0  0  0  0  0  0  0  0  0
    1.4021    0.5680    0.0000 H   0  0  0  0  0  0  0  0  0  0  0  0
    3.1870    5.0763    0.0000 C   0  0  0  0  0  0  0  0  0 32  0  0
    0.5088    6.1313    0.0000 H   0  0  0  0  0  0  0  0  0  0  0  0
    1.8452    5.9932    0.0000 H   0  0  0  0  0  0  0  0  0  0  0  0
    4.0134    3.8244    0.0000 N   0  0  0  0  0  0  0  0  0  8  0  0
    5.0438    2.2634    0.0000 H   0  0  0  0  0  0  0  0  0  0  0  0
    3.7512    0.9114    0.0000 H   0  0  0  0  0  0  0  0  0  0  0  0
    2.9857    6.5627    0.0000 C   0  0  0  0  0  0  0  0  0 11  0  0
    4.5914    5.6033    0.0000 H   0  0  0  0  0  0  0  0  0  0  0  0
    5.4998    4.0258    0.0000 C   0  0  0  0  0  0  0  0  0 24  0  0
    2.7843    8.0491    0.0000 H   0  0  0  0  0  0  0  0  0  0  0  0
    4.4721    6.7640    0.0000 H   0  0  0  0  0  0  0  0  0  0  0  0
    2.1886    6.5528    0.0000 H   0  0  0  0  0  0  0  0  0  0  0  0
    6.0686    5.4137    0.0000 O   0  0  0  0  0  0  0  0  0  2  0  0
    6.4174    2.8392    0.0000 C   0  0  0  0  0  0  0  0  0 28  0  0
    5.8485    1.4512    0.0000 C   0  0  0  0  0  0  0  0  0 16  0  0
    7.9038    3.0405    0.0000 C   0  0  0  0  0  0  0  0  0 29  0  0
    6.7661    0.2646    0.0000 C   0  0  0  0  0  0  0  0  0 25  0  0
    4.3978    1.0702    0.0000 H   0  0  0  0  0  0  0  0  0  0  0  0
    8.8214    1.8539    0.0000 C   0  0  0  0  0  0  0  0  0 17  0  0
    8.4726    4.4285    0.0000 N   0  0  0  0  0  0  0  0  0  9  0  0
    6.1973   -1.1234    0.0000 C   0  0  0  0  0  0  0  0  0 10  0  0
    8.2526    0.4659    0.0000 C   0  0  0  0  0  0  0  0  0 14  0  0
   10.3078    2.0552    0.0000 H   0  0  0  0  0  0  0  0  0  0  0  0
    7.6841    5.7045    0.0000 N   0  0  0  0  0  0  0  0  0  5  0  0
    9.9299    4.7841    0.0000 N   0  0  0  0  0  0  0  0  0  6  0  0
    5.6285   -2.5113    0.0000 H   0  0  0  0  0  0  0  0  0  0  0  0
    7.5853   -1.6922    0.0000 H   0  0  0  0  0  0  0  0  0  0  0  0
    4.8093   -0.5545    0.0000 H   0  0  0  0  0  0  0  0  0  0  0  0
    9.1701   -0.7207    0.0000 H   0  0  0  0  0  0  0  0  0  0  0  0
    8.6540    6.8487    0.0000 C   0  0  0  0  0  0  0  0  0 12  0  0
   10.0420    6.2799    0.0000 C   0  0  0  0  0  0  0  0  0 13  0  0
    8.2984    8.3060    0.0000 H   0  0  0  0  0  0  0  0  0  0  0  0
   11.3180    7.0684    0.0000 H   0  0  0  0  0  0  0  0  0  0  0  0
    1.2760    0.0000    0.0000 O   0  0  0  0  0  0  0  0  0  3  0  0
   -1.0323    0.7500    0.0000 N   0  0  0  0  0  0  0  0  0  4  0  0
    0.3943   -1.2135    0.0000 C   0  0  0  0  0  0  0  0  0 31  0  0
   -1.0323   -0.7500    0.0000 C   0  0  0  0  0  0  0  0  0 30  0  0
    0.7062   -2.6807    0.0000 C   0  0  0  0  0  0  0  0  0 19  0  0
   -2.1470   -1.7537    0.0000 C   0  0  0  0  0  0  0  0  0 18  0  0
   -0.4086   -3.6844    0.0000 C   0  0  0  0  0  0  0  0  0 15  0  0
    2.1328   -3.1443    0.0000 H   0  0  0  0  0  0  0  0  0  0  0  0
   -1.8351   -3.2209    0.0000 C   0  0  0  0  0  0  0  0  0 26  0  0
   -3.5736   -1.2902    0.0000 H   0  0  0  0  0  0  0  0  0  0  0  0
   -0.0967   -5.1517    0.0000 H   0  0  0  0  0  0  0  0  0  0  0  0
   -2.9499   -4.2246    0.0000 Cl  0  0  0  0  0  0  0  0  0  1  0  0
  1  2  1  0
  1  3  1  0
  1  4  1  0
  5  1  1  0
  4  6  1  0
  4  7  1  0
  4  8  1  0
  9  5  1  0
  5 10  1  0
  5 11  1  0
  6 12  1  0
  6 13  1  0
  6 14  1  0
 15  9  1  0
  9 16  1  0
  9 17  1  0
 12 18  1  0
 12 15  1  0
 12 19  1  6
 15 20  1  0
 18 21  1  0
 18 22  1  0
 18 23  1  0
 20 24  2  0
 20 25  1  0
 25 26  2  0
 27 25  1  0
 26 28  1  0
 26 29  1  0
 30 27  2  0
 27 31  1  0
 28 32  1  0
 28 33  2  0
 33 30  1  0
 30 34  1  0
 31 35  1  0
 36 31  1  0
 32 37  1  0
 32 38  1  0
 32 39  1  0
 33 40  1  0
 35 41  2  0
 42 36  2  0
 41 42  1  0
 41 43  1  0
 42 44  1  0
 45  3  1  0
  3 46  2  0
 47 45  1  0
 46 48  1  0
 49 47  2  0
 48 47  1  0
 48 50  2  0
 51 49  1  0
 49 52  1  0
 50 53  1  0
 50 54  1  0
 53 51  2  0
 51 55  1  0
 56 53  1  0
M  CHG  2   1   1   2  -1
M  END
>  <SMILES>  (12) 
Cc1ccc(-n2nccn2)c(C(=O)N2CC[N+]([O-])(c3nc4cc(Cl)ccc4o3)CCC2C)c1

>  <Molecular Weight>  (12) 
466.9

>  <Substrate_ID>  (12) 
MOL0044

>  <Substrate>  (12) 


>  <Substrate_SMILES>  (12) 
Cc1ccc(-n2nccn2)c(C(=O)N2CCN(c3nc4cc(Cl)ccc4o3)CCC2C)c1

>  <Reaction>  (12) 
N-oxidation

>  <Score>  (12) 
0.0417

>  <Reaction_Score>  (12) 
0.0074

>  <Bond_Score>  (12) 
0.2339

>  <Rank>  (12) 
9

>  <Subtype>  (12) 
REACTION

>  <Subtype_Scores>  (12) 
[REACTION] SOM_score: 0.2339, Reaction_score: 0.0074, Score: 0.0417


$$$$
