
     RDKit          2D

 55 57  0  0  0  0  0  0  0  0999 V2000
    8.5663   -8.0678    0.0000 C   0  0  0  0  0  0  0  0  0 11  0  0
    9.7799   -8.9494    0.0000 O   0  0  0  0  0  0  0  0  0 31  0  0
    8.5663   -6.5678    0.0000 S   0  0  0  0  0  0  0  0  0  1  0  0
    7.1398   -8.5313    0.0000 C   0  0  0  0  0  0  0  0  0 10  0  0
    7.1398   -6.1042    0.0000 C   0  0  0  0  0  0  0  0  0 28  0  0
    6.2581   -7.3178    0.0000 C   0  0  0  0  0  0  0  0  0 16  0  0
    6.6762   -9.9579    0.0000 H   0  0  0  0  0  0  0  0  0  0  0  0
    6.6762   -4.6776    0.0000 C   0  0  0  0  0  0  0  0  0 20  0  0
    4.7581   -7.3178    0.0000 H   0  0  0  0  0  0  0  0  0  0  0  0
    6.2127   -3.2511    0.0000 C   0  0  0  0  0  0  0  0  0 25  0  0
    5.2496   -5.1412    0.0000 H   0  0  0  0  0  0  0  0  0  0  0  0
    8.1028   -4.2141    0.0000 H   0  0  0  0  0  0  0  0  0  0  0  0
    4.7455   -2.9392    0.0000 C   0  0  0  0  0  0  0  0  0  9  0  0
    7.2164   -2.1363    0.0000 C   0  0  0  0  0  0  0  0  0 23  0  0
    3.7418   -4.0539    0.0000 C   0  0  0  0  0  0  0  0  0 29  0  0
    4.2820   -1.5126    0.0000 H   0  0  0  0  0  0  0  0  0  0  0  0
    8.6836   -2.4482    0.0000 O   0  0  0  0  0  0  0  0  0  2  0  0
    6.7529   -0.7098    0.0000 O   0  0  0  0  0  0  0  0  0  4  0  0
    2.2500   -3.8971    0.0000 N   0  0  0  0  0  0  0  0  0  7  0  0
    4.0537   -5.5211    0.0000 C   0  0  0  0  0  0  0  0  0 17  0  0
    7.7566    0.4050    0.0000 H   0  0  0  0  0  0  0  0  0  0  0  0
    1.5000   -2.5981    0.0000 C   0  0  0  0  0  0  0  0  0 22  0  0
    1.6399   -5.2674    0.0000 C   0  0  0  0  0  0  0  0  0 30  0  0
    2.7546   -6.2711    0.0000 N   0  0  0  0  0  0  0  0  0  6  0  0
    5.4240   -6.1312    0.0000 H   0  0  0  0  0  0  0  0  0  0  0  0
    0.7500   -1.2990    0.0000 C   0  0  0  0  0  0  0  0  0 26  0  0
    0.1192   -3.1841    0.0000 H   0  0  0  0  0  0  0  0  0  0  0  0
    2.7990   -1.8481    0.0000 H   0  0  0  0  0  0  0  0  0  0  0  0
    0.1727   -5.5793    0.0000 C   0  0  0  0  0  0  0  0  0 21  0  0
   -0.7500   -1.2990    0.0000 C   0  0  0  0  0  0  0  0  0 12  0  0
    1.5000   -0.0000    0.0000 C   0  0  0  0  0  0  0  0  0 13  0  0
   -1.2945   -5.8912    0.0000 C   0  0  0  0  0  0  0  0  0 19  0  0
   -0.3157   -4.1610    0.0000 H   0  0  0  0  0  0  0  0  0  0  0  0
    0.4845   -7.0465    0.0000 H   0  0  0  0  0  0  0  0  0  0  0  0
   -1.5000    0.0000    0.0000 C   0  0  0  0  0  0  0  0  0 14  0  0
   -1.5000   -2.5981    0.0000 H   0  0  0  0  0  0  0  0  0  0  0  0
    0.7500    1.2990    0.0000 C   0  0  0  0  0  0  0  0  0 15  0  0
    3.0000   -0.0000    0.0000 H   0  0  0  0  0  0  0  0  0  0  0  0
   -2.7618   -6.2030    0.0000 C   0  0  0  0  0  0  0  0  0 18  0  0
   -1.6064   -4.4239    0.0000 H   0  0  0  0  0  0  0  0  0  0  0  0
   -0.9827   -7.3584    0.0000 H   0  0  0  0  0  0  0  0  0  0  0  0
   -0.7500    1.2990    0.0000 C   0  0  0  0  0  0  0  0  0 27  0  0
   -3.0000    0.0000    0.0000 H   0  0  0  0  0  0  0  0  0  0  0  0
    1.5000    2.5981    0.0000 H   0  0  0  0  0  0  0  0  0  0  0  0
   -4.2290   -6.5149    0.0000 C   0  0  0  0  0  0  0  0  0  8  0  0
   -2.4499   -7.6703    0.0000 H   0  0  0  0  0  0  0  0  0  0  0  0
   -3.0736   -4.7358    0.0000 H   0  0  0  0  0  0  0  0  0  0  0  0
   -1.5000    2.5981    0.0000 C   0  0  0  0  0  0  0  0  0 24  0  0
   -4.5409   -5.0477    0.0000 H   0  0  0  0  0  0  0  0  0  0  0  0
   -3.9171   -7.9821    0.0000 H   0  0  0  0  0  0  0  0  0  0  0  0
   -5.6962   -6.8268    0.0000 H   0  0  0  0  0  0  0  0  0  0  0  0
   -3.0000    2.5981    0.0000 O   0  0  0  0  0  0  0  0  0  3  0  0
   -0.7500    3.8971    0.0000 O   0  0  0  0  0  0  0  0  0  5  0  0
   -1.5000    5.1962    0.0000 H   0  0  0  0  0  0  0  0  0  0  0  0
    9.6231  -10.4412    0.0000 H   0  0  0  0  0  0  0  0  0  0  0  0
  1  2  1  0
  3  1  1  0
  1  4  2  0
  5  3  1  0
  4  6  1  0
  4  7  1  0
  6  5  2  0
  5  8  1  0
  6  9  1  0
  8 10  1  0
  8 11  1  0
  8 12  1  0
 10 13  2  0
 10 14  1  0
 13 15  1  0
 13 16  1  0
 14 17  2  0
 14 18  1  0
 15 19  1  0
 20 15  2  0
 18 21  1  0
 19 22  1  0
 19 23  1  0
 24 20  1  0
 20 25  1  0
 22 26  1  0
 22 27  1  0
 22 28  1  0
 23 29  1  0
 23 24  2  0
 26 30  2  0
 31 26  1  0
 29 32  1  0
 29 33  1  0
 29 34  1  0
 30 35  1  0
 30 36  1  0
 37 31  2  0
 31 38  1  0
 32 39  1  0
 32 40  1  0
 32 41  1  0
 35 42  2  0
 35 43  1  0
 42 37  1  0
 37 44  1  0
 39 45  1  0
 39 46  1  0
 39 47  1  0
 42 48  1  0
 45 49  1  0
 45 50  1  0
 45 51  1  0
 48 52  2  0
 48 53  1  0
 53 54  1  0
  2 55  1  0
M  END
>  <SMILES>  (1) 
CCCCc1ncc(C=C(Cc2ccc(O)s2)C(=O)O)n1Cc1ccc(C(=O)O)cc1

>  <Molecular Weight>  (1) 
440.5

>  <Substrate_ID>  (1) 
MOL0012

>  <Substrate>  (1) 


>  <Substrate_SMILES>  (1) 
CCCCc1ncc(C=C(Cc2cccs2)C(=O)O)n1Cc1ccc(C(=O)O)cc1

>  <Reaction>  (1) 
aromatic_hydroxylation_(sulfur_containing_5ring),aromatic hydroxylation

>  <Score>  (1) 
0.2639

>  <Reaction_Score>  (1) 
0.266

>  <Bond_Score>  (1) 
0.2618

>  <Rank>  (1) 
1

>  <Subtype>  (1) 
REACTION

>  <Subtype_Scores>  (1) 
[REACTION] SOM_score: 0.2618, Reaction_score: 0.2660, Score: 0.2639


$$$$

     RDKit          2D

 55 57  0  0  0  0  0  0  0  0999 V2000
    5.7492   -1.8245    0.0000 C   0  0  0  0  0  0  0  0  0 19  0  0
    6.7529   -0.7098    0.0000 C   0  0  0  0  0  0  0  0  0 18  0  0
    7.7566    0.4050    0.0000 O   0  0  0  0  0  0  0  0  0 31  0  0
    7.8676   -1.7135    0.0000 C   0  0  0  0  0  0  0  0  0  8  0  0
    4.7455   -2.9392    0.0000 C   0  0  0  0  0  0  0  0  0 21  0  0
    4.6345   -0.8208    0.0000 H   0  0  0  0  0  0  0  0  0  0  0  0
    6.3303   -2.4930    0.0000 H   0  0  0  0  0  0  0  0  0  0  0  0
    3.7418   -4.0539    0.0000 C   0  0  0  0  0  0  0  0  0 30  0  0
    3.7614   -1.8071    0.0000 H   0  0  0  0  0  0  0  0  0  0  0  0
    5.8602   -3.9429    0.0000 H   0  0  0  0  0  0  0  0  0  0  0  0
    2.2500   -3.8971    0.0000 N   0  0  0  0  0  0  0  0  0  7  0  0
    4.0537   -5.5211    0.0000 N   0  0  0  0  0  0  0  0  0  6  0  0
    1.6399   -5.2674    0.0000 C   0  0  0  0  0  0  0  0  0 29  0  0
    1.5000   -2.5981    0.0000 C   0  0  0  0  0  0  0  0  0 22  0  0
    2.7546   -6.2711    0.0000 C   0  0  0  0  0  0  0  0  0 17  0  0
    0.1727   -5.5793    0.0000 C   0  0  0  0  0  0  0  0  0  9  0  0
    0.7500   -1.2990    0.0000 C   0  0  0  0  0  0  0  0  0 26  0  0
    2.6979   -1.6953    0.0000 H   0  0  0  0  0  0  0  0  0  0  0  0
    0.2010   -3.3481    0.0000 H   0  0  0  0  0  0  0  0  0  0  0  0
    2.5978   -7.7629    0.0000 H   0  0  0  0  0  0  0  0  0  0  0  0
   -0.2909   -7.0059    0.0000 C   0  0  0  0  0  0  0  0  0 25  0  0
   -0.8310   -4.4646    0.0000 H   0  0  0  0  0  0  0  0  0  0  0  0
    1.5000   -0.0000    0.0000 C   0  0  0  0  0  0  0  0  0 12  0  0
   -0.7500   -1.2990    0.0000 C   0  0  0  0  0  0  0  0  0 13  0  0
    0.7128   -8.1206    0.0000 C   0  0  0  0  0  0  0  0  0 20  0  0
   -1.7581   -7.3178    0.0000 C   0  0  0  0  0  0  0  0  0 23  0  0
    0.7500    1.2990    0.0000 C   0  0  0  0  0  0  0  0  0 14  0  0
    3.0000   -0.0000    0.0000 H   0  0  0  0  0  0  0  0  0  0  0  0
   -1.5000    0.0000    0.0000 C   0  0  0  0  0  0  0  0  0 15  0  0
   -1.5000   -2.5981    0.0000 H   0  0  0  0  0  0  0  0  0  0  0  0
    1.7165   -9.2353    0.0000 C   0  0  0  0  0  0  0  0  0 28  0  0
    1.8276   -7.1169    0.0000 H   0  0  0  0  0  0  0  0  0  0  0  0
   -0.4019   -9.1243    0.0000 H   0  0  0  0  0  0  0  0  0  0  0  0
   -2.2216   -8.7443    0.0000 O   0  0  0  0  0  0  0  0  0  2  0  0
   -2.7618   -6.2030    0.0000 O   0  0  0  0  0  0  0  0  0  4  0  0
   -0.7500    1.2990    0.0000 C   0  0  0  0  0  0  0  0  0 27  0  0
    1.5000    2.5981    0.0000 H   0  0  0  0  0  0  0  0  0  0  0  0
   -3.0000    0.0000    0.0000 H   0  0  0  0  0  0  0  0  0  0  0  0
    3.2083   -9.0785    0.0000 C   0  0  0  0  0  0  0  0  0 16  0  0
    1.4047  -10.7025    0.0000 S   0  0  0  0  0  0  0  0  0  1  0  0
   -4.2290   -6.5149    0.0000 H   0  0  0  0  0  0  0  0  0  0  0  0
   -1.5000    2.5981    0.0000 C   0  0  0  0  0  0  0  0  0 24  0  0
    3.8184  -10.4488    0.0000 C   0  0  0  0  0  0  0  0  0 10  0  0
    3.9583   -7.7795    0.0000 H   0  0  0  0  0  0  0  0  0  0  0  0
    2.7037  -11.4525    0.0000 C   0  0  0  0  0  0  0  0  0 11  0  0
   -0.7500    3.8971    0.0000 O   0  0  0  0  0  0  0  0  0  3  0  0
   -3.0000    2.5981    0.0000 O   0  0  0  0  0  0  0  0  0  5  0  0
    5.2856  -10.7607    0.0000 H   0  0  0  0  0  0  0  0  0  0  0  0
    2.8605  -12.9443    0.0000 H   0  0  0  0  0  0  0  0  0  0  0  0
   -3.7500    3.8971    0.0000 H   0  0  0  0  0  0  0  0  0  0  0  0
    5.6382    0.2939    0.0000 H   0  0  0  0  0  0  0  0  0  0  0  0
    7.2930    1.8315    0.0000 H   0  0  0  0  0  0  0  0  0  0  0  0
    8.8713   -0.5987    0.0000 H   0  0  0  0  0  0  0  0  0  0  0  0
    7.3596   -2.4390    0.0000 H   0  0  0  0  0  0  0  0  0  0  0  0
    8.9823   -2.7171    0.0000 H   0  0  0  0  0  0  0  0  0  0  0  0
  1  2  1  0
  2  3  1  0
  2  4  1  0
  5  1  1  0
  1  6  1  0
  1  7  1  0
  8  5  1  0
  5  9  1  0
  5 10  1  0
 11  8  1  0
  8 12  2  0
 13 11  1  0
 11 14  1  0
 12 15  1  0
 16 13  1  0
 15 13  2  0
 14 17  1  0
 14 18  1  0
 14 19  1  0
 15 20  1  0
 21 16  2  0
 16 22  1  0
 17 23  2  0
 24 17  1  0
 25 21  1  0
 21 26  1  0
 23 27  1  0
 23 28  1  0
 29 24  2  0
 24 30  1  0
 31 25  1  0
 25 32  1  0
 25 33  1  0
 26 34  2  0
 26 35  1  0
 27 36  2  0
 27 37  1  0
 36 29  1  0
 29 38  1  0
 39 31  2  0
 31 40  1  0
 35 41  1  0
 36 42  1  0
 43 39  1  0
 39 44  1  0
 40 45  1  0
 42 46  2  0
 42 47  1  0
 45 43  2  0
 43 48  1  0
 45 49  1  0
 47 50  1  0
  2 51  1  0
  3 52  1  0
  4 53  1  0
  4 54  1  0
  4 55  1  0
M  END
>  <SMILES>  (2) 
CC(O)CCc1ncc(C=C(Cc2cccs2)C(=O)O)n1Cc1ccc(C(=O)O)cc1

>  <Molecular Weight>  (2) 
440.5

>  <Substrate_ID>  (2) 
MOL0012

>  <Substrate>  (2) 


>  <Substrate_SMILES>  (2) 
CCCCc1ncc(C=C(Cc2cccs2)C(=O)O)n1Cc1ccc(C(=O)O)cc1

>  <Reaction>  (2) 
aliphatic_hydroxylation_(sec_carbon,next_to_CH3),aliphatic hydroxylation

>  <Score>  (2) 
0.2057

>  <Reaction_Score>  (2) 
0.2167

>  <Bond_Score>  (2) 
0.1953

>  <Rank>  (2) 
2

>  <Subtype>  (2) 
REACTION

>  <Subtype_Scores>  (2) 
[REACTION] SOM_score: 0.1953, Reaction_score: 0.2167, Score: 0.2057


$$$$

     RDKit          2D

 55 57  0  0  0  0  0  0  0  0999 V2000
    8.1028   -4.2141    0.0000 C   0  0  0  0  0  0  0  0  0 28  0  0
    6.6762   -4.6776    0.0000 C   0  0  0  0  0  0  0  0  0 20  0  0
    5.2496   -5.1412    0.0000 O   0  0  0  0  0  0  0  0  0 31  0  0
    6.2127   -3.2511    0.0000 C   0  0  0  0  0  0  0  0  0 25  0  0
    9.3163   -5.0958    0.0000 C   0  0  0  0  0  0  0  0  0 16  0  0
    8.5663   -2.7875    0.0000 S   0  0  0  0  0  0  0  0  0  1  0  0
   10.5299   -4.2141    0.0000 C   0  0  0  0  0  0  0  0  0 10  0  0
    9.3163   -6.5958    0.0000 H   0  0  0  0  0  0  0  0  0  0  0  0
   10.0663   -2.7875    0.0000 C   0  0  0  0  0  0  0  0  0 11  0  0
   11.9564   -4.6776    0.0000 H   0  0  0  0  0  0  0  0  0  0  0  0
   10.9480   -1.5740    0.0000 H   0  0  0  0  0  0  0  0  0  0  0  0
    7.1398   -6.1042    0.0000 H   0  0  0  0  0  0  0  0  0  0  0  0
    4.7455   -2.9392    0.0000 C   0  0  0  0  0  0  0  0  0  9  0  0
    7.2164   -2.1363    0.0000 C   0  0  0  0  0  0  0  0  0 23  0  0
    3.7418   -4.0539    0.0000 C   0  0  0  0  0  0  0  0  0 29  0  0
    4.2820   -1.5126    0.0000 H   0  0  0  0  0  0  0  0  0  0  0  0
    8.0131   -2.1085    0.0000 O   0  0  0  0  0  0  0  0  0  2  0  0
    6.7529   -0.7098    0.0000 O   0  0  0  0  0  0  0  0  0  4  0  0
    2.2500   -3.8971    0.0000 N   0  0  0  0  0  0  0  0  0  7  0  0
    4.0537   -5.5211    0.0000 C   0  0  0  0  0  0  0  0  0 17  0  0
    7.7566    0.4050    0.0000 H   0  0  0  0  0  0  0  0  0  0  0  0
    1.5000   -2.5981    0.0000 C   0  0  0  0  0  0  0  0  0 22  0  0
    1.6399   -5.2674    0.0000 C   0  0  0  0  0  0  0  0  0 30  0  0
    2.7546   -6.2711    0.0000 N   0  0  0  0  0  0  0  0  0  6  0  0
    5.3394   -6.2937    0.0000 H   0  0  0  0  0  0  0  0  0  0  0  0
    0.7500   -1.2990    0.0000 C   0  0  0  0  0  0  0  0  0 26  0  0
    2.7990   -1.8481    0.0000 H   0  0  0  0  0  0  0  0  0  0  0  0
    0.1192   -3.1841    0.0000 H   0  0  0  0  0  0  0  0  0  0  0  0
    0.1727   -5.5793    0.0000 C   0  0  0  0  0  0  0  0  0 21  0  0
    1.5000    0.0000    0.0000 C   0  0  0  0  0  0  0  0  0 12  0  0
   -0.7500   -1.2990    0.0000 C   0  0  0  0  0  0  0  0  0 13  0  0
   -1.2945   -5.8912    0.0000 C   0  0  0  0  0  0  0  0  0 19  0  0
    0.4845   -7.0465    0.0000 H   0  0  0  0  0  0  0  0  0  0  0  0
   -0.3157   -4.1610    0.0000 H   0  0  0  0  0  0  0  0  0  0  0  0
    0.7500    1.2990    0.0000 C   0  0  0  0  0  0  0  0  0 14  0  0
    3.0000    0.0000    0.0000 H   0  0  0  0  0  0  0  0  0  0  0  0
   -1.5000    0.0000    0.0000 C   0  0  0  0  0  0  0  0  0 15  0  0
   -1.5000   -2.5981    0.0000 H   0  0  0  0  0  0  0  0  0  0  0  0
   -2.7618   -6.2030    0.0000 C   0  0  0  0  0  0  0  0  0 18  0  0
   -0.9827   -7.3584    0.0000 H   0  0  0  0  0  0  0  0  0  0  0  0
   -1.6064   -4.4239    0.0000 H   0  0  0  0  0  0  0  0  0  0  0  0
   -0.7500    1.2990    0.0000 C   0  0  0  0  0  0  0  0  0 27  0  0
    1.5000    2.5981    0.0000 H   0  0  0  0  0  0  0  0  0  0  0  0
   -3.0000    0.0000    0.0000 H   0  0  0  0  0  0  0  0  0  0  0  0
   -4.2290   -6.5149    0.0000 C   0  0  0  0  0  0  0  0  0  8  0  0
   -3.0736   -4.7358    0.0000 H   0  0  0  0  0  0  0  0  0  0  0  0
   -2.4499   -7.6703    0.0000 H   0  0  0  0  0  0  0  0  0  0  0  0
   -1.5000    2.5981    0.0000 C   0  0  0  0  0  0  0  0  0 24  0  0
   -3.9171   -7.9821    0.0000 H   0  0  0  0  0  0  0  0  0  0  0  0
   -4.5409   -5.0477    0.0000 H   0  0  0  0  0  0  0  0  0  0  0  0
   -5.6962   -6.8268    0.0000 H   0  0  0  0  0  0  0  0  0  0  0  0
   -0.7500    3.8971    0.0000 O   0  0  0  0  0  0  0  0  0  3  0  0
   -3.0000    2.5981    0.0000 O   0  0  0  0  0  0  0  0  0  5  0  0
   -3.7500    3.8971    0.0000 H   0  0  0  0  0  0  0  0  0  0  0  0
    5.1189   -6.6355    0.0000 H   0  0  0  0  0  0  0  0  0  0  0  0
  1  2  1  0
  2  3  1  0
  2  4  1  0
  5  1  2  0
  1  6  1  0
  7  5  1  0
  5  8  1  0
  6  9  1  0
  9  7  2  0
  7 10  1  0
  9 11  1  0
  2 12  1  0
  4 13  2  0
  4 14  1  0
 13 15  1  0
 13 16  1  0
 14 17  2  0
 14 18  1  0
 15 19  1  0
 20 15  2  0
 18 21  1  0
 19 22  1  0
 19 23  1  0
 24 20  1  0
 20 25  1  0
 22 26  1  0
 22 27  1  0
 22 28  1  0
 23 29  1  0
 23 24  2  0
 26 30  2  0
 31 26  1  0
 29 32  1  0
 29 33  1  0
 29 34  1  0
 30 35  1  0
 30 36  1  0
 37 31  2  0
 31 38  1  0
 32 39  1  0
 32 40  1  0
 32 41  1  0
 35 42  2  0
 35 43  1  0
 42 37  1  0
 37 44  1  0
 39 45  1  0
 39 46  1  0
 39 47  1  0
 42 48  1  0
 45 49  1  0
 45 50  1  0
 45 51  1  0
 48 52  2  0
 48 53  1  0
 53 54  1  0
  3 55  1  0
M  END
>  <SMILES>  (3) 
CCCCc1ncc(C=C(C(=O)O)C(O)c2cccs2)n1Cc1ccc(C(=O)O)cc1

>  <Molecular Weight>  (3) 
440.5

>  <Substrate_ID>  (3) 
MOL0012

>  <Substrate>  (3) 


>  <Substrate_SMILES>  (3) 
CCCCc1ncc(C=C(Cc2cccs2)C(=O)O)n1Cc1ccc(C(=O)O)cc1

>  <Reaction>  (3) 
benzylic_hydroxylation_(c-CH2-CR),aliphatic hydroxylation

>  <Score>  (3) 
0.1717

>  <Reaction_Score>  (3) 
0.1502

>  <Bond_Score>  (3) 
0.1961

>  <Rank>  (3) 
3

>  <Subtype>  (3) 
REACTION

>  <Subtype_Scores>  (3) 
[REACTION] SOM_score: 0.1961, Reaction_score: 0.1502, Score: 0.1717


$$$$

     RDKit          2D

 55 57  0  0  0  0  0  0  0  0999 V2000
    3.7418   -4.0539    0.0000 C   0  0  0  0  0  0  0  0  0 30  0  0
    4.7455   -2.9392    0.0000 C   0  0  0  0  0  0  0  0  0 21  0  0
    5.7492   -1.8245    0.0000 O   0  0  0  0  0  0  0  0  0 31  0  0
    5.8602   -3.9429    0.0000 C   0  0  0  0  0  0  0  0  0 19  0  0
    2.2500   -3.8971    0.0000 N   0  0  0  0  0  0  0  0  0  7  0  0
    4.0537   -5.5211    0.0000 N   0  0  0  0  0  0  0  0  0  6  0  0
    1.6399   -5.2674    0.0000 C   0  0  0  0  0  0  0  0  0 29  0  0
    1.5000   -2.5981    0.0000 C   0  0  0  0  0  0  0  0  0 22  0  0
    2.7546   -6.2711    0.0000 C   0  0  0  0  0  0  0  0  0 17  0  0
    0.1727   -5.5793    0.0000 C   0  0  0  0  0  0  0  0  0  9  0  0
    0.7500   -1.2990    0.0000 C   0  0  0  0  0  0  0  0  0 26  0  0
    0.2010   -3.3481    0.0000 H   0  0  0  0  0  0  0  0  0  0  0  0
    2.6979   -1.6953    0.0000 H   0  0  0  0  0  0  0  0  0  0  0  0
    2.5978   -7.7629    0.0000 H   0  0  0  0  0  0  0  0  0  0  0  0
   -0.2909   -7.0059    0.0000 C   0  0  0  0  0  0  0  0  0 25  0  0
   -0.8310   -4.4646    0.0000 H   0  0  0  0  0  0  0  0  0  0  0  0
   -0.7500   -1.2990    0.0000 C   0  0  0  0  0  0  0  0  0 12  0  0
    1.5000   -0.0000    0.0000 C   0  0  0  0  0  0  0  0  0 13  0  0
    0.7128   -8.1206    0.0000 C   0  0  0  0  0  0  0  0  0 20  0  0
   -1.7581   -7.3178    0.0000 C   0  0  0  0  0  0  0  0  0 23  0  0
   -1.5000    0.0000    0.0000 C   0  0  0  0  0  0  0  0  0 14  0  0
   -1.5000   -2.5981    0.0000 H   0  0  0  0  0  0  0  0  0  0  0  0
    0.7500    1.2990    0.0000 C   0  0  0  0  0  0  0  0  0 15  0  0
    3.0000   -0.0000    0.0000 H   0  0  0  0  0  0  0  0  0  0  0  0
    1.7165   -9.2353    0.0000 C   0  0  0  0  0  0  0  0  0 28  0  0
    1.8276   -7.1169    0.0000 H   0  0  0  0  0  0  0  0  0  0  0  0
   -0.4019   -9.1243    0.0000 H   0  0  0  0  0  0  0  0  0  0  0  0
   -2.2216   -8.7443    0.0000 O   0  0  0  0  0  0  0  0  0  2  0  0
   -2.7618   -6.2030    0.0000 O   0  0  0  0  0  0  0  0  0  4  0  0
   -0.7500    1.2990    0.0000 C   0  0  0  0  0  0  0  0  0 27  0  0
   -3.0000    0.0000    0.0000 H   0  0  0  0  0  0  0  0  0  0  0  0
    1.5000    2.5981    0.0000 H   0  0  0  0  0  0  0  0  0  0  0  0
    3.2083   -9.0785    0.0000 C   0  0  0  0  0  0  0  0  0 16  0  0
    1.4047  -10.7025    0.0000 S   0  0  0  0  0  0  0  0  0  1  0  0
   -4.2290   -6.5149    0.0000 H   0  0  0  0  0  0  0  0  0  0  0  0
   -1.5000    2.5981    0.0000 C   0  0  0  0  0  0  0  0  0 24  0  0
    3.8184  -10.4488    0.0000 C   0  0  0  0  0  0  0  0  0 10  0  0
    3.9583   -7.7795    0.0000 H   0  0  0  0  0  0  0  0  0  0  0  0
    2.7037  -11.4525    0.0000 C   0  0  0  0  0  0  0  0  0 11  0  0
   -3.0000    2.5981    0.0000 O   0  0  0  0  0  0  0  0  0  3  0  0
   -0.7500    3.8971    0.0000 O   0  0  0  0  0  0  0  0  0  5  0  0
    5.2856  -10.7607    0.0000 H   0  0  0  0  0  0  0  0  0  0  0  0
    2.8605  -12.9443    0.0000 H   0  0  0  0  0  0  0  0  0  0  0  0
   -1.5000    5.1962    0.0000 H   0  0  0  0  0  0  0  0  0  0  0  0
    3.7614   -1.8071    0.0000 H   0  0  0  0  0  0  0  0  0  0  0  0
    6.9749   -4.9466    0.0000 C   0  0  0  0  0  0  0  0  0 18  0  0
    6.9923   -2.9588    0.0000 H   0  0  0  0  0  0  0  0  0  0  0  0
    4.8565   -5.0576    0.0000 H   0  0  0  0  0  0  0  0  0  0  0  0
    8.0896   -5.9503    0.0000 C   0  0  0  0  0  0  0  0  0  8  0  0
    5.9712   -6.0613    0.0000 H   0  0  0  0  0  0  0  0  0  0  0  0
    7.9786   -3.8319    0.0000 H   0  0  0  0  0  0  0  0  0  0  0  0
    9.0933   -4.8356    0.0000 H   0  0  0  0  0  0  0  0  0  0  0  0
    7.0859   -7.0650    0.0000 H   0  0  0  0  0  0  0  0  0  0  0  0
    9.2043   -6.9540    0.0000 H   0  0  0  0  0  0  0  0  0  0  0  0
    7.2435   -1.9552    0.0000 H   0  0  0  0  0  0  0  0  0  0  0  0
  1  2  1  0
  2  3  1  0
  2  4  1  0
  5  1  1  0
  1  6  2  0
  7  5  1  0
  5  8  1  0
  6  9  1  0
 10  7  1  0
  9  7  2  0
  8 11  1  0
  8 12  1  0
  8 13  1  0
  9 14  1  0
 15 10  2  0
 10 16  1  0
 11 17  2  0
 18 11  1  0
 19 15  1  0
 15 20  1  0
 17 21  1  0
 17 22  1  0
 23 18  2  0
 18 24  1  0
 25 19  1  0
 19 26  1  0
 19 27  1  0
 20 28  2  0
 20 29  1  0
 21 30  2  0
 21 31  1  0
 30 23  1  0
 23 32  1  0
 33 25  2  0
 25 34  1  0
 29 35  1  0
 30 36  1  0
 37 33  1  0
 33 38  1  0
 34 39  1  0
 36 40  2  0
 36 41  1  0
 39 37  2  0
 37 42  1  0
 39 43  1  0
 41 44  1  0
  2 45  1  0
  4 46  1  0
  4 47  1  0
  4 48  1  0
 46 49  1  0
 46 50  1  0
 46 51  1  0
 49 52  1  0
 49 53  1  0
 49 54  1  0
  3 55  1  0
M  END
>  <SMILES>  (4) 
CCCC(O)c1ncc(C=C(Cc2cccs2)C(=O)O)n1Cc1ccc(C(=O)O)cc1

>  <Molecular Weight>  (4) 
440.5

>  <Substrate_ID>  (4) 
MOL0012

>  <Substrate>  (4) 


>  <Substrate_SMILES>  (4) 
CCCCc1ncc(C=C(Cc2cccs2)C(=O)O)n1Cc1ccc(C(=O)O)cc1

>  <Reaction>  (4) 
benzylic_hydroxylation_(c-CH2-CR),aliphatic hydroxylation

>  <Score>  (4) 
0.1448

>  <Reaction_Score>  (4) 
0.1492

>  <Bond_Score>  (4) 
0.1405

>  <Rank>  (4) 
4

>  <Subtype>  (4) 
REACTION

>  <Subtype_Scores>  (4) 
[REACTION] SOM_score: 0.1405, Reaction_score: 0.1492, Score: 0.1448


$$$$
