
     RDKit          2D

 48 51  0  0  0  0  0  0  0  0999 V2000
   12.0000    2.5981    0.0000 N   0  0  0  0  0  0  0  0  0  7  0  0
   11.2500    1.2990    0.0000 C   0  0  0  0  0  0  0  0  0 21  0  0
   11.2500    3.8971    0.0000 C   0  0  0  0  0  0  0  0  0 22  0  0
    9.7500    1.2990    0.0000 C   0  0  0  0  0  0  0  0  0 24  0  0
   12.6595    0.7860    0.0000 H   0  0  0  0  0  0  0  0  0  0  0  0
   10.9895   -0.1782    0.0000 H   0  0  0  0  0  0  0  0  0  0  0  0
    9.7500    3.8971    0.0000 C   0  0  0  0  0  0  0  0  0 25  0  0
   10.9895    5.3743    0.0000 H   0  0  0  0  0  0  0  0  0  0  0  0
   12.6595    4.4101    0.0000 H   0  0  0  0  0  0  0  0  0  0  0  0
    9.0000    2.5981    0.0000 N   0  0  0  0  0  0  0  0  0  8  0  0
   10.0105   -0.1782    0.0000 H   0  0  0  0  0  0  0  0  0  0  0  0
    8.3405    0.7860    0.0000 H   0  0  0  0  0  0  0  0  0  0  0  0
    8.3405    4.4101    0.0000 H   0  0  0  0  0  0  0  0  0  0  0  0
   10.0105    5.3743    0.0000 H   0  0  0  0  0  0  0  0  0  0  0  0
    7.5000    2.5981    0.0000 C   0  0  0  0  0  0  0  0  0 26  0  0
    6.7500    1.2990    0.0000 C   0  0  0  0  0  0  0  0  0 28  0  0
    6.7500    3.8971    0.0000 O   0  0  0  0  0  0  0  0  0  2  0  0
    5.2500    1.2990    0.0000 C   0  0  0  0  0  0  0  0  0 14  0  0
    7.5000   -0.0000    0.0000 C   0  0  0  0  0  0  0  0  0 15  0  0
    4.5000    0.0000    0.0000 C   0  0  0  0  0  0  0  0  0 12  0  0
    4.5000    2.5981    0.0000 H   0  0  0  0  0  0  0  0  0  0  0  0
    6.7500   -1.2990    0.0000 C   0  0  0  0  0  0  0  0  0 13  0  0
    9.0000   -0.0000    0.0000 H   0  0  0  0  0  0  0  0  0  0  0  0
    5.2500   -1.2990    0.0000 C   0  0  0  0  0  0  0  0  0 27  0  0
    3.0000    0.0000    0.0000 H   0  0  0  0  0  0  0  0  0  0  0  0
    7.5000   -2.5981    0.0000 H   0  0  0  0  0  0  0  0  0  0  0  0
    4.5000   -2.5981    0.0000 N   0  0  0  0  0  0  0  0  0  6  0  0
    3.0000   -2.5981    0.0000 S   0  0  0  0  0  6  0  0  0  1  0  0
    5.2500   -3.8971    0.0000 H   0  0  0  0  0  0  0  0  0  0  0  0
    3.0000   -4.0981    0.0000 O   0  0  0  0  0  0  0  0  0  3  0  0
    3.0000   -1.0981    0.0000 O   0  0  0  0  0  0  0  0  0  4  0  0
    1.5000   -2.5981    0.0000 C   0  0  0  0  0  0  0  0  0 29  0  0
    0.7500   -3.8971    0.0000 C   0  0  0  0  0  0  0  0  0 16  0  0
    0.7500   -1.2990    0.0000 C   0  0  0  0  0  0  0  0  0 31  0  0
   -0.7500   -3.8971    0.0000 C   0  0  0  0  0  0  0  0  0 10  0  0
    1.5000   -5.1962    0.0000 H   0  0  0  0  0  0  0  0  0  0  0  0
    1.5000    0.0000    0.0000 N   0  0  0  0  0  0  0  0  0  5  0  0
   -0.7500   -1.2990    0.0000 C   0  0  0  0  0  0  0  0  0 30  0  0
   -1.5000   -2.5981    0.0000 C   0  0  0  0  0  0  0  0  0 18  0  0
   -1.5000   -5.1962    0.0000 H   0  0  0  0  0  0  0  0  0  0  0  0
    0.7500    1.2990    0.0000 C   0  0  0  0  0  0  0  0  0 11  0  0
   -1.5000    0.0000    0.0000 C   0  0  0  0  0  0  0  0  0 17  0  0
   -3.0000   -2.5981    0.0000 H   0  0  0  0  0  0  0  0  0  0  0  0
   -0.7500    1.2990    0.0000 C   0  0  0  0  0  0  0  0  0  9  0  0
    1.5000    2.5981    0.0000 H   0  0  0  0  0  0  0  0  0  0  0  0
   -3.0000    0.0000    0.0000 H   0  0  0  0  0  0  0  0  0  0  0  0
   -1.5000    2.5981    0.0000 H   0  0  0  0  0  0  0  0  0  0  0  0
   13.5000    2.5981    0.0000 H   0  0  0  0  0  0  0  0  0  0  0  0
  2  1  1  0
  1  3  1  0
  4  2  1  0
  2  5  1  0
  2  6  1  0
  3  7  1  0
  3  8  1  0
  3  9  1  0
 10  4  1  0
  4 11  1  0
  4 12  1  0
  7 10  1  0
  7 13  1  0
  7 14  1  0
 15 10  1  0
 16 15  1  0
 15 17  2  0
 18 16  2  0
 16 19  1  0
 20 18  1  0
 18 21  1  0
 19 22  2  0
 19 23  1  0
 24 20  2  0
 20 25  1  0
 22 24  1  0
 22 26  1  0
 27 24  1  0
 28 27  1  0
 27 29  1  0
 28 30  2  0
 28 31  2  0
 28 32  1  0
 32 33  2  0
 34 32  1  0
 33 35  1  0
 33 36  1  0
 37 34  2  0
 34 38  1  0
 35 39  2  0
 35 40  1  0
 41 37  1  0
 39 38  1  0
 38 42  2  0
 39 43  1  0
 44 41  2  0
 41 45  1  0
 42 44  1  0
 42 46  1  0
 44 47  1  0
  1 48  1  0
M  END
>  <SMILES>  (1) 
O=C(c1ccc(NS(=O)(=O)c2cccc3cccnc23)cc1)N1CCNCC1

>  <Molecular Weight>  (1) 
396.5

>  <Substrate_ID>  (1) 
MOL0016

>  <Substrate>  (1) 


>  <Substrate_SMILES>  (1) 
O=C(c1ccc(NS(=O)(=O)c2cccc3cccnc23)cc1)N1CCN(CC2CC2)CC1

>  <Reaction>  (1) 
N-dealkylation_(tertiaryN-CH2-alkyl)

>  <Score>  (1) 
0.4519

>  <Reaction_Score>  (1) 
0.4566

>  <Bond_Score>  (1) 
0.4473

>  <Rank>  (1) 
1

>  <Subtype>  (1) 
REACTION

>  <Subtype_Scores>  (1) 
[REACTION] SOM_score: 0.4473, Reaction_score: 0.4566, Score: 0.4519


$$$$

     RDKit          2D

 59 63  0  0  0  0  0  0  0  0999 V2000
    1.5000   -2.5981    0.0000 C   0  0  0  0  0  0  0  0  0 29  0  0
    0.7500   -1.2990    0.0000 C   0  0  0  0  0  0  0  0  0 31  0  0
    1.5000    0.0000    0.0000 N   0  0  0  0  0  0  0  0  0  5  0  0
    0.7500    1.2990    0.0000 C   0  0  0  0  0  0  0  0  0 11  0  0
   -0.7500    1.2990    0.0000 C   0  0  0  0  0  0  0  0  0  9  0  0
   -1.5000    2.5981    0.0000 O   0  0  0  0  0  0  0  0  0 33  0  0
   -1.5000    0.0000    0.0000 C   0  0  0  0  0  0  0  0  0 17  0  0
   -0.7500   -1.2990    0.0000 C   0  0  0  0  0  0  0  0  0 30  0  0
    3.0000   -2.5981    0.0000 S   0  0  0  0  0  6  0  0  0  1  0  0
    0.7500   -3.8971    0.0000 C   0  0  0  0  0  0  0  0  0 16  0  0
    3.0000   -4.0981    0.0000 O   0  0  0  0  0  0  0  0  0  3  0  0
    3.0000   -1.0981    0.0000 O   0  0  0  0  0  0  0  0  0  4  0  0
    4.5000   -2.5981    0.0000 N   0  0  0  0  0  0  0  0  0  6  0  0
   -0.7500   -3.8971    0.0000 C   0  0  0  0  0  0  0  0  0 10  0  0
    1.5000   -5.1962    0.0000 H   0  0  0  0  0  0  0  0  0  0  0  0
    5.2500   -1.2990    0.0000 C   0  0  0  0  0  0  0  0  0 27  0  0
    5.2500   -3.8971    0.0000 H   0  0  0  0  0  0  0  0  0  0  0  0
   -1.5000   -2.5981    0.0000 C   0  0  0  0  0  0  0  0  0 18  0  0
   -1.5000   -5.1962    0.0000 H   0  0  0  0  0  0  0  0  0  0  0  0
    6.7500   -1.2990    0.0000 C   0  0  0  0  0  0  0  0  0 12  0  0
    4.5000    0.0000    0.0000 C   0  0  0  0  0  0  0  0  0 13  0  0
   -3.0000   -2.5981    0.0000 H   0  0  0  0  0  0  0  0  0  0  0  0
    7.5000    0.0000    0.0000 C   0  0  0  0  0  0  0  0  0 14  0  0
    7.5000   -2.5981    0.0000 H   0  0  0  0  0  0  0  0  0  0  0  0
    5.2500    1.2990    0.0000 C   0  0  0  0  0  0  0  0  0 15  0  0
    3.0000    0.0000    0.0000 H   0  0  0  0  0  0  0  0  0  0  0  0
    6.7500    1.2990    0.0000 C   0  0  0  0  0  0  0  0  0 28  0  0
    9.0000    0.0000    0.0000 H   0  0  0  0  0  0  0  0  0  0  0  0
    4.5000    2.5981    0.0000 H   0  0  0  0  0  0  0  0  0  0  0  0
    7.5000    2.5981    0.0000 C   0  0  0  0  0  0  0  0  0 26  0  0
    6.7500    3.8971    0.0000 O   0  0  0  0  0  0  0  0  0  2  0  0
    9.0000    2.5981    0.0000 N   0  0  0  0  0  0  0  0  0  8  0  0
    9.7500    1.2990    0.0000 C   0  0  0  0  0  0  0  0  0 24  0  0
    9.7500    3.8971    0.0000 C   0  0  0  0  0  0  0  0  0 25  0  0
   11.2500    1.2990    0.0000 C   0  0  0  0  0  0  0  0  0 21  0  0
   10.0105   -0.1782    0.0000 H   0  0  0  0  0  0  0  0  0  0  0  0
    8.3405    0.7860    0.0000 H   0  0  0  0  0  0  0  0  0  0  0  0
   11.2500    3.8971    0.0000 C   0  0  0  0  0  0  0  0  0 22  0  0
    8.3405    4.4101    0.0000 H   0  0  0  0  0  0  0  0  0  0  0  0
   10.0105    5.3743    0.0000 H   0  0  0  0  0  0  0  0  0  0  0  0
   12.0000    2.5981    0.0000 N   0  0  0  0  0  0  0  0  0  7  0  0
   12.5865    0.6180    0.0000 H   0  0  0  0  0  0  0  0  0  0  0  0
   10.9895   -0.1782    0.0000 H   0  0  0  0  0  0  0  0  0  0  0  0
   10.9895    5.3743    0.0000 H   0  0  0  0  0  0  0  0  0  0  0  0
   12.5865    4.5781    0.0000 H   0  0  0  0  0  0  0  0  0  0  0  0
   13.5000    2.5981    0.0000 C   0  0  0  0  0  0  0  0  0 23  0  0
   15.0000    2.5981    0.0000 C   0  0  0  0  0  0  0  0  0 32  0  0
   13.5000    3.9481    0.0000 H   0  0  0  0  0  0  0  0  0  0  0  0
   13.6828    1.1093    0.0000 H   0  0  0  0  0  0  0  0  0  0  0  0
   16.4095    3.1111    0.0000 C   0  0  0  0  0  0  0  0  0 19  0  0
   15.2605    4.0753    0.0000 C   0  0  0  0  0  0  0  0  0 20  0  0
   15.2605    1.1209    0.0000 H   0  0  0  0  0  0  0  0  0  0  0  0
   17.1595    1.8121    0.0000 H   0  0  0  0  0  0  0  0  0  0  0  0
   17.5586    4.0753    0.0000 H   0  0  0  0  0  0  0  0  0  0  0  0
   16.0105    5.3743    0.0000 H   0  0  0  0  0  0  0  0  0  0  0  0
   14.0576    4.6882    0.0000 H   0  0  0  0  0  0  0  0  0  0  0  0
    1.5000    2.5981    0.0000 H   0  0  0  0  0  0  0  0  0  0  0  0
   -3.0000    0.0000    0.0000 H   0  0  0  0  0  0  0  0  0  0  0  0
   -3.0000    2.5981    0.0000 H   0  0  0  0  0  0  0  0  0  0  0  0
  1  2  1  0
  2  3  2  0
  3  4  1  0
  4  5  2  0
  5  6  1  0
  5  7  1  0
  7  8  2  0
  8  2  1  0
  9  1  1  0
  1 10  2  0
  9 11  2  0
  9 12  2  0
  9 13  1  0
 10 14  1  0
 10 15  1  0
 13 16  1  0
 13 17  1  0
 14 18  2  0
 14 19  1  0
 16 20  2  0
 21 16  1  0
 18  8  1  0
 18 22  1  0
 20 23  1  0
 20 24  1  0
 25 21  2  0
 21 26  1  0
 23 27  2  0
 23 28  1  0
 27 25  1  0
 25 29  1  0
 27 30  1  0
 30 31  2  0
 30 32  1  0
 32 33  1  0
 34 32  1  0
 33 35  1  0
 33 36  1  0
 33 37  1  0
 38 34  1  0
 34 39  1  0
 34 40  1  0
 35 41  1  0
 35 42  1  0
 35 43  1  0
 41 38  1  0
 38 44  1  0
 38 45  1  0
 41 46  1  0
 46 47  1  0
 46 48  1  0
 46 49  1  0
 47 50  1  0
 51 47  1  0
 47 52  1  0
 50 51  1  0
 50 53  1  0
 50 54  1  0
 51 55  1  0
 51 56  1  0
  4 57  1  0
  7 58  1  0
  6 59  1  0
M  END
>  <SMILES>  (2) 
O=C(c1ccc(NS(=O)(=O)c2cccc3cc(O)cnc23)cc1)N1CCN(CC2CC2)CC1

>  <Molecular Weight>  (2) 
466.6

>  <Substrate_ID>  (2) 
MOL0016

>  <Substrate>  (2) 


>  <Substrate_SMILES>  (2) 
O=C(c1ccc(NS(=O)(=O)c2cccc3cccnc23)cc1)N1CCN(CC2CC2)CC1

>  <Reaction>  (2) 
aromatic_hydroxylation_(para_to_carbon),aromatic hydroxylation

>  <Score>  (2) 
0.2947

>  <Reaction_Score>  (2) 
0.2946

>  <Bond_Score>  (2) 
0.2949

>  <Rank>  (2) 
2

>  <Subtype>  (2) 
REACTION

>  <Subtype_Scores>  (2) 
[REACTION] SOM_score: 0.2949, Reaction_score: 0.2946, Score: 0.2947


$$$$

     RDKit          2D

 59 63  0  0  0  0  0  0  0  0999 V2000
   -1.5000   -2.5981    0.0000 C   0  0  0  0  0  0  0  0  0 18  0  0
   -0.7500   -1.2990    0.0000 C   0  0  0  0  0  0  0  0  0 30  0  0
    0.7500   -1.2990    0.0000 C   0  0  0  0  0  0  0  0  0 31  0  0
    1.5000    0.0000    0.0000 N   0  0  0  0  0  0  0  0  0  5  0  0
    0.7500    1.2990    0.0000 C   0  0  0  0  0  0  0  0  0 11  0  0
    1.5000    2.5981    0.0000 O   0  0  0  0  0  0  0  0  0 33  0  0
   -0.7500    1.2990    0.0000 C   0  0  0  0  0  0  0  0  0  9  0  0
   -1.5000    0.0000    0.0000 C   0  0  0  0  0  0  0  0  0 17  0  0
   -0.7500   -3.8971    0.0000 C   0  0  0  0  0  0  0  0  0 10  0  0
   -3.0000   -2.5981    0.0000 H   0  0  0  0  0  0  0  0  0  0  0  0
    0.7500   -3.8971    0.0000 C   0  0  0  0  0  0  0  0  0 16  0  0
   -1.5000   -5.1962    0.0000 H   0  0  0  0  0  0  0  0  0  0  0  0
    1.5000   -2.5981    0.0000 C   0  0  0  0  0  0  0  0  0 29  0  0
    1.5000   -5.1962    0.0000 H   0  0  0  0  0  0  0  0  0  0  0  0
    3.0000   -2.5981    0.0000 S   0  0  0  0  0  6  0  0  0  1  0  0
    3.0000   -4.0981    0.0000 O   0  0  0  0  0  0  0  0  0  3  0  0
    3.0000   -1.0981    0.0000 O   0  0  0  0  0  0  0  0  0  4  0  0
    4.5000   -2.5981    0.0000 N   0  0  0  0  0  0  0  0  0  6  0  0
    5.2500   -1.2990    0.0000 C   0  0  0  0  0  0  0  0  0 27  0  0
    5.2500   -3.8971    0.0000 H   0  0  0  0  0  0  0  0  0  0  0  0
    6.7500   -1.2990    0.0000 C   0  0  0  0  0  0  0  0  0 12  0  0
    4.5000   -0.0000    0.0000 C   0  0  0  0  0  0  0  0  0 13  0  0
    7.5000   -0.0000    0.0000 C   0  0  0  0  0  0  0  0  0 14  0  0
    7.5000   -2.5981    0.0000 H   0  0  0  0  0  0  0  0  0  0  0  0
    5.2500    1.2990    0.0000 C   0  0  0  0  0  0  0  0  0 15  0  0
    3.0000    0.0000    0.0000 H   0  0  0  0  0  0  0  0  0  0  0  0
    6.7500    1.2990    0.0000 C   0  0  0  0  0  0  0  0  0 28  0  0
    9.0000    0.0000    0.0000 H   0  0  0  0  0  0  0  0  0  0  0  0
    4.5000    2.5981    0.0000 H   0  0  0  0  0  0  0  0  0  0  0  0
    7.5000    2.5981    0.0000 C   0  0  0  0  0  0  0  0  0 26  0  0
    6.7500    3.8971    0.0000 O   0  0  0  0  0  0  0  0  0  2  0  0
    9.0000    2.5981    0.0000 N   0  0  0  0  0  0  0  0  0  8  0  0
    9.7500    1.2990    0.0000 C   0  0  0  0  0  0  0  0  0 24  0  0
    9.7500    3.8971    0.0000 C   0  0  0  0  0  0  0  0  0 25  0  0
   11.2500    1.2990    0.0000 C   0  0  0  0  0  0  0  0  0 21  0  0
   10.0105   -0.1782    0.0000 H   0  0  0  0  0  0  0  0  0  0  0  0
    8.3405    0.7860    0.0000 H   0  0  0  0  0  0  0  0  0  0  0  0
   11.2500    3.8971    0.0000 C   0  0  0  0  0  0  0  0  0 22  0  0
    8.3405    4.4101    0.0000 H   0  0  0  0  0  0  0  0  0  0  0  0
   10.0105    5.3743    0.0000 H   0  0  0  0  0  0  0  0  0  0  0  0
   12.0000    2.5981    0.0000 N   0  0  0  0  0  0  0  0  0  7  0  0
   12.5865    0.6180    0.0000 H   0  0  0  0  0  0  0  0  0  0  0  0
   10.9895   -0.1782    0.0000 H   0  0  0  0  0  0  0  0  0  0  0  0
   10.9895    5.3743    0.0000 H   0  0  0  0  0  0  0  0  0  0  0  0
   12.5865    4.5781    0.0000 H   0  0  0  0  0  0  0  0  0  0  0  0
   13.5000    2.5981    0.0000 C   0  0  0  0  0  0  0  0  0 23  0  0
   15.0000    2.5981    0.0000 C   0  0  0  0  0  0  0  0  0 32  0  0
   13.5000    3.9481    0.0000 H   0  0  0  0  0  0  0  0  0  0  0  0
   13.6828    1.1093    0.0000 H   0  0  0  0  0  0  0  0  0  0  0  0
   16.4095    3.1111    0.0000 C   0  0  0  0  0  0  0  0  0 19  0  0
   15.2605    4.0753    0.0000 C   0  0  0  0  0  0  0  0  0 20  0  0
   15.2605    1.1209    0.0000 H   0  0  0  0  0  0  0  0  0  0  0  0
   17.1595    1.8121    0.0000 H   0  0  0  0  0  0  0  0  0  0  0  0
   17.5586    4.0753    0.0000 H   0  0  0  0  0  0  0  0  0  0  0  0
   16.0105    5.3743    0.0000 H   0  0  0  0  0  0  0  0  0  0  0  0
   14.0576    4.6882    0.0000 H   0  0  0  0  0  0  0  0  0  0  0  0
   -1.5000    2.5981    0.0000 H   0  0  0  0  0  0  0  0  0  0  0  0
   -3.0000    0.0000    0.0000 H   0  0  0  0  0  0  0  0  0  0  0  0
    3.0000    2.5981    0.0000 H   0  0  0  0  0  0  0  0  0  0  0  0
  1  2  2  0
  2  3  1  0
  3  4  1  0
  4  5  2  0
  5  6  1  0
  5  7  1  0
  7  8  2  0
  8  2  1  0
  9  1  1  0
  1 10  1  0
 11  9  2  0
  9 12  1  0
 13 11  1  0
 11 14  1  0
 15 13  1  0
  3 13  2  0
 15 16  2  0
 15 17  2  0
 15 18  1  0
 18 19  1  0
 18 20  1  0
 19 21  2  0
 22 19  1  0
 21 23  1  0
 21 24  1  0
 25 22  2  0
 22 26  1  0
 23 27  2  0
 23 28  1  0
 27 25  1  0
 25 29  1  0
 27 30  1  0
 30 31  2  0
 30 32  1  0
 32 33  1  0
 34 32  1  0
 33 35  1  0
 33 36  1  0
 33 37  1  0
 38 34  1  0
 34 39  1  0
 34 40  1  0
 35 41  1  0
 35 42  1  0
 35 43  1  0
 41 38  1  0
 38 44  1  0
 38 45  1  0
 41 46  1  0
 46 47  1  0
 46 48  1  0
 46 49  1  0
 47 50  1  0
 51 47  1  0
 47 52  1  0
 50 51  1  0
 50 53  1  0
 50 54  1  0
 51 55  1  0
 51 56  1  0
  7 57  1  0
  8 58  1  0
  6 59  1  0
M  END
>  <SMILES>  (3) 
O=C(c1ccc(NS(=O)(=O)c2cccc3ccc(O)nc23)cc1)N1CCN(CC2CC2)CC1

>  <Molecular Weight>  (3) 
466.6

>  <Substrate_ID>  (3) 
MOL0016

>  <Substrate>  (3) 


>  <Substrate_SMILES>  (3) 
O=C(c1ccc(NS(=O)(=O)c2cccc3cccnc23)cc1)N1CCN(CC2CC2)CC1

>  <Reaction>  (3) 
aromatic_hydroxylation_(para_to_carbon),aromatic hydroxylation

>  <Score>  (3) 
0.2429

>  <Reaction_Score>  (3) 
0.2409

>  <Bond_Score>  (3) 
0.2449

>  <Rank>  (3) 
3

>  <Subtype>  (3) 
REACTION

>  <Subtype_Scores>  (3) 
[REACTION] SOM_score: 0.2449, Reaction_score: 0.2409, Score: 0.2429


$$$$

     RDKit          2D

 59 63  0  0  0  0  0  0  0  0999 V2000
    1.5000    0.0000    0.0000 C   0  0  0  0  0  0  0  0  0 17  0  0
    3.0000    0.0000    0.0000 O   0  0  0  0  0  0  0  0  0 33  0  0
    3.7500    1.2990    0.0000 H   0  0  0  0  0  0  0  0  0  0  0  0
    0.7500   -1.2990    0.0000 C   0  0  0  0  0  0  0  0  0 30  0  0
    0.7500    1.2990    0.0000 C   0  0  0  0  0  0  0  0  0  9  0  0
    1.5000   -2.5981    0.0000 C   0  0  0  0  0  0  0  0  0 18  0  0
   -0.7500   -1.2990    0.0000 C   0  0  0  0  0  0  0  0  0 31  0  0
   -0.7500    1.2990    0.0000 C   0  0  0  0  0  0  0  0  0 11  0  0
    1.5000    2.5981    0.0000 H   0  0  0  0  0  0  0  0  0  0  0  0
    0.7500   -3.8971    0.0000 C   0  0  0  0  0  0  0  0  0 10  0  0
    3.0000   -2.5981    0.0000 H   0  0  0  0  0  0  0  0  0  0  0  0
   -1.5000    0.0000    0.0000 N   0  0  0  0  0  0  0  0  0  5  0  0
   -1.5000   -2.5981    0.0000 C   0  0  0  0  0  0  0  0  0 29  0  0
   -1.5000    2.5981    0.0000 H   0  0  0  0  0  0  0  0  0  0  0  0
   -0.7500   -3.8971    0.0000 C   0  0  0  0  0  0  0  0  0 16  0  0
    1.5000   -5.1962    0.0000 H   0  0  0  0  0  0  0  0  0  0  0  0
   -3.0000   -2.5981    0.0000 S   0  0  0  0  0  6  0  0  0  1  0  0
   -1.5000   -5.1962    0.0000 H   0  0  0  0  0  0  0  0  0  0  0  0
   -3.0000   -4.0981    0.0000 O   0  0  0  0  0  0  0  0  0  3  0  0
   -3.0000   -1.0981    0.0000 O   0  0  0  0  0  0  0  0  0  4  0  0
   -4.5000   -2.5981    0.0000 N   0  0  0  0  0  0  0  0  0  6  0  0
   -5.2500   -1.2990    0.0000 C   0  0  0  0  0  0  0  0  0 27  0  0
   -5.2500   -3.8971    0.0000 H   0  0  0  0  0  0  0  0  0  0  0  0
   -4.5000    0.0000    0.0000 C   0  0  0  0  0  0  0  0  0 12  0  0
   -6.7500   -1.2990    0.0000 C   0  0  0  0  0  0  0  0  0 13  0  0
   -5.2500    1.2990    0.0000 C   0  0  0  0  0  0  0  0  0 14  0  0
   -3.0000    0.0000    0.0000 H   0  0  0  0  0  0  0  0  0  0  0  0
   -7.5000    0.0000    0.0000 C   0  0  0  0  0  0  0  0  0 15  0  0
   -7.5000   -2.5981    0.0000 H   0  0  0  0  0  0  0  0  0  0  0  0
   -6.7500    1.2990    0.0000 C   0  0  0  0  0  0  0  0  0 28  0  0
   -4.5000    2.5981    0.0000 H   0  0  0  0  0  0  0  0  0  0  0  0
   -9.0000    0.0000    0.0000 H   0  0  0  0  0  0  0  0  0  0  0  0
   -7.5000    2.5981    0.0000 C   0  0  0  0  0  0  0  0  0 26  0  0
   -9.0000    2.5981    0.0000 O   0  0  0  0  0  0  0  0  0  2  0  0
   -6.7500    3.8971    0.0000 N   0  0  0  0  0  0  0  0  0  8  0  0
   -5.2500    3.8971    0.0000 C   0  0  0  0  0  0  0  0  0 24  0  0
   -7.5000    5.1962    0.0000 C   0  0  0  0  0  0  0  0  0 25  0  0
   -4.5000    5.1962    0.0000 C   0  0  0  0  0  0  0  0  0 21  0  0
   -3.8405    3.3841    0.0000 H   0  0  0  0  0  0  0  0  0  0  0  0
   -5.5105    2.4199    0.0000 H   0  0  0  0  0  0  0  0  0  0  0  0
   -6.7500    6.4952    0.0000 C   0  0  0  0  0  0  0  0  0 22  0  0
   -8.6491    4.2320    0.0000 H   0  0  0  0  0  0  0  0  0  0  0  0
   -8.6491    6.1603    0.0000 H   0  0  0  0  0  0  0  0  0  0  0  0
   -5.2500    6.4952    0.0000 N   0  0  0  0  0  0  0  0  0  7  0  0
   -3.2420    6.0131    0.0000 H   0  0  0  0  0  0  0  0  0  0  0  0
   -3.3509    4.2320    0.0000 H   0  0  0  0  0  0  0  0  0  0  0  0
   -8.1595    7.0082    0.0000 H   0  0  0  0  0  0  0  0  0  0  0  0
   -6.6715    7.9931    0.0000 H   0  0  0  0  0  0  0  0  0  0  0  0
   -4.5000    7.7942    0.0000 C   0  0  0  0  0  0  0  0  0 23  0  0
   -3.7500    9.0933    0.0000 C   0  0  0  0  0  0  0  0  0 32  0  0
   -5.6691    8.4692    0.0000 H   0  0  0  0  0  0  0  0  0  0  0  0
   -3.1192    7.2082    0.0000 H   0  0  0  0  0  0  0  0  0  0  0  0
   -3.4895   10.5705    0.0000 C   0  0  0  0  0  0  0  0  0 19  0  0
   -4.8991   10.0574    0.0000 C   0  0  0  0  0  0  0  0  0 20  0  0
   -2.3405    8.5802    0.0000 H   0  0  0  0  0  0  0  0  0  0  0  0
   -1.9895   10.5705    0.0000 H   0  0  0  0  0  0  0  0  0  0  0  0
   -3.7500   12.0477    0.0000 H   0  0  0  0  0  0  0  0  0  0  0  0
   -5.6491   11.3565    0.0000 H   0  0  0  0  0  0  0  0  0  0  0  0
   -6.0313    9.3222    0.0000 H   0  0  0  0  0  0  0  0  0  0  0  0
  1  2  1  0
  2  3  1  0
  4  1  2  0
  1  5  1  0
  6  4  1  0
  7  4  1  0
  5  8  2  0
  5  9  1  0
 10  6  2  0
  6 11  1  0
 12  7  2  0
  7 13  1  0
  8 12  1  0
  8 14  1  0
 15 10  1  0
 10 16  1  0
 17 13  1  0
 13 15  2  0
 15 18  1  0
 17 19  2  0
 17 20  2  0
 17 21  1  0
 21 22  1  0
 21 23  1  0
 22 24  2  0
 25 22  1  0
 24 26  1  0
 24 27  1  0
 28 25  2  0
 25 29  1  0
 26 30  2  0
 26 31  1  0
 30 28  1  0
 28 32  1  0
 30 33  1  0
 33 34  2  0
 33 35  1  0
 35 36  1  0
 37 35  1  0
 36 38  1  0
 36 39  1  0
 36 40  1  0
 41 37  1  0
 37 42  1  0
 37 43  1  0
 38 44  1  0
 38 45  1  0
 38 46  1  0
 44 41  1  0
 41 47  1  0
 41 48  1  0
 44 49  1  0
 49 50  1  0
 49 51  1  0
 49 52  1  0
 50 53  1  0
 54 50  1  0
 50 55  1  0
 53 54  1  0
 53 56  1  0
 53 57  1  0
 54 58  1  0
 54 59  1  0
M  END
>  <SMILES>  (4) 
O=C(c1ccc(NS(=O)(=O)c2cccc3c(O)ccnc23)cc1)N1CCN(CC2CC2)CC1

>  <Molecular Weight>  (4) 
466.6

>  <Substrate_ID>  (4) 
MOL0016

>  <Substrate>  (4) 


>  <Substrate_SMILES>  (4) 
O=C(c1ccc(NS(=O)(=O)c2cccc3cccnc23)cc1)N1CCN(CC2CC2)CC1

>  <Reaction>  (4) 
aromatic hydroxylation

>  <Score>  (4) 
0.2187

>  <Reaction_Score>  (4) 
0.2106

>  <Bond_Score>  (4) 
0.2272

>  <Rank>  (4) 
4

>  <Subtype>  (4) 
REACTION

>  <Subtype_Scores>  (4) 
[REACTION] SOM_score: 0.2272, Reaction_score: 0.2106, Score: 0.2187


$$$$

     RDKit          2D

 59 63  0  0  0  0  0  0  0  0999 V2000
    1.5000   -2.5981    0.0000 C   0  0  0  0  0  0  0  0  0 18  0  0
    3.0000   -2.5981    0.0000 O   0  0  0  0  0  0  0  0  0 33  0  0
    3.7500   -3.8971    0.0000 H   0  0  0  0  0  0  0  0  0  0  0  0
    0.7500   -3.8971    0.0000 C   0  0  0  0  0  0  0  0  0 10  0  0
    0.7500   -1.2990    0.0000 C   0  0  0  0  0  0  0  0  0 30  0  0
   -0.7500   -3.8971    0.0000 C   0  0  0  0  0  0  0  0  0 16  0  0
    1.5000   -5.1962    0.0000 H   0  0  0  0  0  0  0  0  0  0  0  0
    1.5000    0.0000    0.0000 C   0  0  0  0  0  0  0  0  0 17  0  0
   -0.7500   -1.2990    0.0000 C   0  0  0  0  0  0  0  0  0 31  0  0
   -1.5000   -2.5981    0.0000 C   0  0  0  0  0  0  0  0  0 29  0  0
   -1.5000   -5.1962    0.0000 H   0  0  0  0  0  0  0  0  0  0  0  0
    0.7500    1.2990    0.0000 C   0  0  0  0  0  0  0  0  0  9  0  0
    3.0000    0.0000    0.0000 H   0  0  0  0  0  0  0  0  0  0  0  0
   -1.5000    0.0000    0.0000 N   0  0  0  0  0  0  0  0  0  5  0  0
   -3.0000   -2.5981    0.0000 S   0  0  0  0  0  6  0  0  0  1  0  0
   -0.7500    1.2990    0.0000 C   0  0  0  0  0  0  0  0  0 11  0  0
    1.5000    2.5981    0.0000 H   0  0  0  0  0  0  0  0  0  0  0  0
   -3.0000   -1.0981    0.0000 O   0  0  0  0  0  0  0  0  0  3  0  0
   -3.0000   -4.0981    0.0000 O   0  0  0  0  0  0  0  0  0  4  0  0
   -4.5000   -2.5981    0.0000 N   0  0  0  0  0  0  0  0  0  6  0  0
   -1.5000    2.5981    0.0000 H   0  0  0  0  0  0  0  0  0  0  0  0
   -5.2500   -3.8971    0.0000 C   0  0  0  0  0  0  0  0  0 27  0  0
   -5.2500   -1.2990    0.0000 H   0  0  0  0  0  0  0  0  0  0  0  0
   -6.7500   -3.8971    0.0000 C   0  0  0  0  0  0  0  0  0 12  0  0
   -4.5000   -5.1962    0.0000 C   0  0  0  0  0  0  0  0  0 13  0  0
   -7.5000   -5.1962    0.0000 C   0  0  0  0  0  0  0  0  0 14  0  0
   -7.5000   -2.5981    0.0000 H   0  0  0  0  0  0  0  0  0  0  0  0
   -5.2500   -6.4952    0.0000 C   0  0  0  0  0  0  0  0  0 15  0  0
   -3.0000   -5.1962    0.0000 H   0  0  0  0  0  0  0  0  0  0  0  0
   -6.7500   -6.4952    0.0000 C   0  0  0  0  0  0  0  0  0 28  0  0
   -9.0000   -5.1962    0.0000 H   0  0  0  0  0  0  0  0  0  0  0  0
   -4.5000   -7.7942    0.0000 H   0  0  0  0  0  0  0  0  0  0  0  0
   -7.5000   -7.7942    0.0000 C   0  0  0  0  0  0  0  0  0 26  0  0
   -6.7500   -9.0933    0.0000 O   0  0  0  0  0  0  0  0  0  2  0  0
   -9.0000   -7.7942    0.0000 N   0  0  0  0  0  0  0  0  0  8  0  0
   -9.7500   -6.4952    0.0000 C   0  0  0  0  0  0  0  0  0 24  0  0
   -9.7500   -9.0933    0.0000 C   0  0  0  0  0  0  0  0  0 25  0  0
  -11.2500   -6.4952    0.0000 C   0  0  0  0  0  0  0  0  0 21  0  0
  -10.0105   -5.0180    0.0000 H   0  0  0  0  0  0  0  0  0  0  0  0
   -8.3405   -5.9822    0.0000 H   0  0  0  0  0  0  0  0  0  0  0  0
  -11.2500   -9.0933    0.0000 C   0  0  0  0  0  0  0  0  0 22  0  0
   -8.3405   -9.6063    0.0000 H   0  0  0  0  0  0  0  0  0  0  0  0
  -10.0105  -10.5705    0.0000 H   0  0  0  0  0  0  0  0  0  0  0  0
  -12.0000   -7.7942    0.0000 N   0  0  0  0  0  0  0  0  0  7  0  0
  -12.5865   -5.8142    0.0000 H   0  0  0  0  0  0  0  0  0  0  0  0
  -10.9895   -5.0180    0.0000 H   0  0  0  0  0  0  0  0  0  0  0  0
  -10.9895  -10.5705    0.0000 H   0  0  0  0  0  0  0  0  0  0  0  0
  -12.5865   -9.7743    0.0000 H   0  0  0  0  0  0  0  0  0  0  0  0
  -13.5000   -7.7942    0.0000 C   0  0  0  0  0  0  0  0  0 23  0  0
  -15.0000   -7.7942    0.0000 C   0  0  0  0  0  0  0  0  0 32  0  0
  -13.5000   -9.1442    0.0000 H   0  0  0  0  0  0  0  0  0  0  0  0
  -13.6828   -6.3054    0.0000 H   0  0  0  0  0  0  0  0  0  0  0  0
  -16.4095   -8.3073    0.0000 C   0  0  0  0  0  0  0  0  0 19  0  0
  -15.2605   -9.2714    0.0000 C   0  0  0  0  0  0  0  0  0 20  0  0
  -15.2605   -6.3170    0.0000 H   0  0  0  0  0  0  0  0  0  0  0  0
  -17.1595   -7.0082    0.0000 H   0  0  0  0  0  0  0  0  0  0  0  0
  -17.5586   -9.2714    0.0000 H   0  0  0  0  0  0  0  0  0  0  0  0
  -16.0105  -10.5705    0.0000 H   0  0  0  0  0  0  0  0  0  0  0  0
  -14.0576   -9.8844    0.0000 H   0  0  0  0  0  0  0  0  0  0  0  0
  1  2  1  0
  2  3  1  0
  4  1  2  0
  1  5  1  0
  6  4  1  0
  4  7  1  0
  5  8  2  0
  9  5  1  0
 10  6  2  0
  6 11  1  0
  8 12  1  0
  8 13  1  0
 14  9  2  0
  9 10  1  0
 15 10  1  0
 12 16  2  0
 12 17  1  0
 16 14  1  0
 15 18  2  0
 15 19  2  0
 15 20  1  0
 16 21  1  0
 20 22  1  0
 20 23  1  0
 22 24  2  0
 25 22  1  0
 24 26  1  0
 24 27  1  0
 28 25  2  0
 25 29  1  0
 26 30  2  0
 26 31  1  0
 30 28  1  0
 28 32  1  0
 30 33  1  0
 33 34  2  0
 33 35  1  0
 35 36  1  0
 37 35  1  0
 36 38  1  0
 36 39  1  0
 36 40  1  0
 41 37  1  0
 37 42  1  0
 37 43  1  0
 38 44  1  0
 38 45  1  0
 38 46  1  0
 44 41  1  0
 41 47  1  0
 41 48  1  0
 44 49  1  0
 49 50  1  0
 49 51  1  0
 49 52  1  0
 50 53  1  0
 54 50  1  0
 50 55  1  0
 53 54  1  0
 53 56  1  0
 53 57  1  0
 54 58  1  0
 54 59  1  0
M  END
>  <SMILES>  (5) 
O=C(c1ccc(NS(=O)(=O)c2ccc(O)c3cccnc23)cc1)N1CCN(CC2CC2)CC1

>  <Molecular Weight>  (5) 
466.6

>  <Substrate_ID>  (5) 
MOL0016

>  <Substrate>  (5) 


>  <Substrate_SMILES>  (5) 
O=C(c1ccc(NS(=O)(=O)c2cccc3cccnc23)cc1)N1CCN(CC2CC2)CC1

>  <Reaction>  (5) 
aromatic hydroxylation

>  <Score>  (5) 
0.191

>  <Reaction_Score>  (5) 
0.1915

>  <Bond_Score>  (5) 
0.1905

>  <Rank>  (5) 
5

>  <Subtype>  (5) 
REACTION

>  <Subtype_Scores>  (5) 
[REACTION] SOM_score: 0.1905, Reaction_score: 0.1915, Score: 0.1910


$$$$

     RDKit          2D

 59 63  0  0  0  0  0  0  0  0999 V2000
   16.4095    3.1111    0.0000 C   0  0  0  0  0  0  0  0  0 19  0  0
   17.1595    1.8121    0.0000 O   0  0  0  0  0  0  0  0  0 33  0  0
   18.6595    1.8121    0.0000 H   0  0  0  0  0  0  0  0  0  0  0  0
   15.0000    2.5981    0.0000 C   0  0  0  0  0  0  0  0  0 32  0  0
   15.2605    4.0753    0.0000 C   0  0  0  0  0  0  0  0  0 20  0  0
   17.5586    4.0753    0.0000 H   0  0  0  0  0  0  0  0  0  0  0  0
   13.5000    2.5981    0.0000 C   0  0  0  0  0  0  0  0  0 23  0  0
   15.2605    1.1209    0.0000 H   0  0  0  0  0  0  0  0  0  0  0  0
   16.0105    5.3743    0.0000 H   0  0  0  0  0  0  0  0  0  0  0  0
   14.0576    4.6882    0.0000 H   0  0  0  0  0  0  0  0  0  0  0  0
   12.0000    2.5981    0.0000 N   0  0  0  0  0  0  0  0  0  7  0  0
   13.5000    3.9481    0.0000 H   0  0  0  0  0  0  0  0  0  0  0  0
   13.6828    1.1093    0.0000 H   0  0  0  0  0  0  0  0  0  0  0  0
   11.2500    3.8971    0.0000 C   0  0  0  0  0  0  0  0  0 21  0  0
   11.2500    1.2990    0.0000 C   0  0  0  0  0  0  0  0  0 22  0  0
    9.7500    3.8971    0.0000 C   0  0  0  0  0  0  0  0  0 24  0  0
   10.9895    5.3743    0.0000 H   0  0  0  0  0  0  0  0  0  0  0  0
   12.5865    4.5781    0.0000 H   0  0  0  0  0  0  0  0  0  0  0  0
    9.7500    1.2990    0.0000 C   0  0  0  0  0  0  0  0  0 25  0  0
   12.5865    0.6180    0.0000 H   0  0  0  0  0  0  0  0  0  0  0  0
   10.9895   -0.1782    0.0000 H   0  0  0  0  0  0  0  0  0  0  0  0
    9.0000    2.5981    0.0000 N   0  0  0  0  0  0  0  0  0  8  0  0
    8.3405    4.4101    0.0000 H   0  0  0  0  0  0  0  0  0  0  0  0
   10.0105    5.3743    0.0000 H   0  0  0  0  0  0  0  0  0  0  0  0
   10.0105   -0.1782    0.0000 H   0  0  0  0  0  0  0  0  0  0  0  0
    8.3405    0.7860    0.0000 H   0  0  0  0  0  0  0  0  0  0  0  0
    7.5000    2.5981    0.0000 C   0  0  0  0  0  0  0  0  0 26  0  0
    6.7500    1.2990    0.0000 C   0  0  0  0  0  0  0  0  0 28  0  0
    6.7500    3.8971    0.0000 O   0  0  0  0  0  0  0  0  0  2  0  0
    5.2500    1.2990    0.0000 C   0  0  0  0  0  0  0  0  0 14  0  0
    7.5000   -0.0000    0.0000 C   0  0  0  0  0  0  0  0  0 15  0  0
    4.5000    0.0000    0.0000 C   0  0  0  0  0  0  0  0  0 12  0  0
    4.5000    2.5981    0.0000 H   0  0  0  0  0  0  0  0  0  0  0  0
    6.7500   -1.2990    0.0000 C   0  0  0  0  0  0  0  0  0 13  0  0
    9.0000   -0.0000    0.0000 H   0  0  0  0  0  0  0  0  0  0  0  0
    5.2500   -1.2990    0.0000 C   0  0  0  0  0  0  0  0  0 27  0  0
    3.0000    0.0000    0.0000 H   0  0  0  0  0  0  0  0  0  0  0  0
    7.5000   -2.5981    0.0000 H   0  0  0  0  0  0  0  0  0  0  0  0
    4.5000   -2.5981    0.0000 N   0  0  0  0  0  0  0  0  0  6  0  0
    3.0000   -2.5981    0.0000 S   0  0  0  0  0  6  0  0  0  1  0  0
    5.2500   -3.8971    0.0000 H   0  0  0  0  0  0  0  0  0  0  0  0
    3.0000   -4.0981    0.0000 O   0  0  0  0  0  0  0  0  0  3  0  0
    3.0000   -1.0981    0.0000 O   0  0  0  0  0  0  0  0  0  4  0  0
    1.5000   -2.5981    0.0000 C   0  0  0  0  0  0  0  0  0 29  0  0
    0.7500   -3.8971    0.0000 C   0  0  0  0  0  0  0  0  0 16  0  0
    0.7500   -1.2990    0.0000 C   0  0  0  0  0  0  0  0  0 31  0  0
   -0.7500   -3.8971    0.0000 C   0  0  0  0  0  0  0  0  0 10  0  0
    1.5000   -5.1962    0.0000 H   0  0  0  0  0  0  0  0  0  0  0  0
    1.5000    0.0000    0.0000 N   0  0  0  0  0  0  0  0  0  5  0  0
   -0.7500   -1.2990    0.0000 C   0  0  0  0  0  0  0  0  0 30  0  0
   -1.5000   -2.5981    0.0000 C   0  0  0  0  0  0  0  0  0 18  0  0
   -1.5000   -5.1962    0.0000 H   0  0  0  0  0  0  0  0  0  0  0  0
    0.7500    1.2990    0.0000 C   0  0  0  0  0  0  0  0  0 11  0  0
   -1.5000    0.0000    0.0000 C   0  0  0  0  0  0  0  0  0 17  0  0
   -3.0000   -2.5981    0.0000 H   0  0  0  0  0  0  0  0  0  0  0  0
   -0.7500    1.2990    0.0000 C   0  0  0  0  0  0  0  0  0  9  0  0
    1.5000    2.5981    0.0000 H   0  0  0  0  0  0  0  0  0  0  0  0
   -3.0000    0.0000    0.0000 H   0  0  0  0  0  0  0  0  0  0  0  0
   -1.5000    2.5981    0.0000 H   0  0  0  0  0  0  0  0  0  0  0  0
  1  2  1  0
  2  3  1  0
  4  1  1  0
  1  5  1  0
  1  6  1  0
  7  4  1  0
  5  4  1  0
  4  8  1  0
  5  9  1  0
  5 10  1  0
 11  7  1  0
  7 12  1  0
  7 13  1  0
 14 11  1  0
 11 15  1  0
 16 14  1  0
 14 17  1  0
 14 18  1  0
 15 19  1  0
 15 20  1  0
 15 21  1  0
 22 16  1  0
 16 23  1  0
 16 24  1  0
 19 22  1  0
 19 25  1  0
 19 26  1  0
 27 22  1  0
 28 27  1  0
 27 29  2  0
 30 28  2  0
 28 31  1  0
 32 30  1  0
 30 33  1  0
 31 34  2  0
 31 35  1  0
 36 32  2  0
 32 37  1  0
 34 36  1  0
 34 38  1  0
 39 36  1  0
 40 39  1  0
 39 41  1  0
 40 42  2  0
 40 43  2  0
 40 44  1  0
 44 45  2  0
 46 44  1  0
 45 47  1  0
 45 48  1  0
 49 46  2  0
 46 50  1  0
 47 51  2  0
 47 52  1  0
 53 49  1  0
 51 50  1  0
 50 54  2  0
 51 55  1  0
 56 53  2  0
 53 57  1  0
 54 56  1  0
 54 58  1  0
 56 59  1  0
M  END
>  <SMILES>  (6) 
O=C(c1ccc(NS(=O)(=O)c2cccc3cccnc23)cc1)N1CCN(CC2CC2O)CC1

>  <Molecular Weight>  (6) 
466.6

>  <Substrate_ID>  (6) 
MOL0016

>  <Substrate>  (6) 


>  <Substrate_SMILES>  (6) 
O=C(c1ccc(NS(=O)(=O)c2cccc3cccnc23)cc1)N1CCN(CC2CC2)CC1

>  <Reaction>  (6) 
aliphatic hydroxylation

>  <Score>  (6) 
0.189

>  <Reaction_Score>  (6) 
0.1956

>  <Bond_Score>  (6) 
0.1827

>  <Rank>  (6) 
6

>  <Subtype>  (6) 
REACTION

>  <Subtype_Scores>  (6) 
[REACTION] SOM_score: 0.1827, Reaction_score: 0.1956, Score: 0.1890


$$$$
