
     RDKit          2D

 42 43  0  0  0  0  0  0  0  0999 V2000
    1.5000    0.0000    0.0000 C   0  0  0  0  0  0  0  0  0 15  0  0
    3.0000    0.0000    0.0000 O   0  0  0  0  0  0  0  0  0  8  0  0
    0.7500   -1.2990    0.0000 C   0  0  0  0  0  0  0  0  0 14  0  0
    0.7500    1.2990    0.0000 C   0  0  0  0  0  0  0  0  0 18  0  0
   -0.7500   -1.2990    0.0000 C   0  0  0  0  0  0  0  0  0 13  0  0
    1.5000   -2.5981    0.0000 H   0  0  0  0  0  0  0  0  0  0  0  0
   -0.7500    1.2990    0.0000 C   0  0  0  0  0  0  0  0  0 19  0  0
    1.5000    2.5981    0.0000 H   0  0  0  0  0  0  0  0  0  0  0  0
   -1.5000   -2.5981    0.0000 C   0  0  0  0  0  0  0  0  0 12  0  0
   -1.5000    0.0000    0.0000 C   0  0  0  0  0  0  0  0  0 20  0  0
   -1.5000    2.5981    0.0000 H   0  0  0  0  0  0  0  0  0  0  0  0
   -0.7500   -3.8971    0.0000 O   0  0  0  0  0  0  0  0  0  7  0  0
   -3.0000   -2.5981    0.0000 N   0  0  0  0  0  0  0  0  0 10  0  0
   -3.0000    0.0000    0.0000 O   0  0  0  0  0  0  0  0  0  9  0  0
   -3.7500   -3.8971    0.0000 C   0  0  0  0  0  0  0  0  0 23  0  0
   -3.7500   -1.2990    0.0000 H   0  0  0  0  0  0  0  0  0  0  0  0
   -3.7500    1.2990    0.0000 C   0  0  0  0  0  0  0  0  0 21  0  0
   -4.5000   -5.1962    0.0000 C   0  0  0  0  0  0  0  0  0 24  0  0
   -2.4510   -4.6471    0.0000 H   0  0  0  0  0  0  0  0  0  0  0  0
   -4.6233   -3.2390    0.0000 H   0  0  0  0  0  0  0  0  0  0  0  0
   -4.5000    2.5981    0.0000 C   0  0  0  0  0  0  0  0  0 22  0  0
   -2.4510    2.0490    0.0000 H   0  0  0  0  0  0  0  0  0  0  0  0
   -5.0490    0.5490    0.0000 H   0  0  0  0  0  0  0  0  0  0  0  0
   -5.6491   -4.2320    0.0000 N   0  0  0  0  0  0  0  0  0 11  0  0
   -4.7605   -6.6734    0.0000 C   0  0  0  0  0  0  0  0  0 28  0  0
   -3.0905   -5.7092    0.0000 H   0  0  0  0  0  0  0  0  0  0  0  0
   -5.2500    3.8971    0.0000 F   0  0  0  0  0  0  0  0  0  4  0  0
   -3.2010    3.3481    0.0000 F   0  0  0  0  0  0  0  0  0  5  0  0
   -5.7990    1.8481    0.0000 F   0  0  0  0  0  0  0  0  0  6  0  0
   -7.0586   -4.7450    0.0000 C   0  0  0  0  0  0  0  0  0 25  0  0
   -5.5919   -3.1400    0.0000 H   0  0  0  0  0  0  0  0  0  0  0  0
   -6.1700   -7.1864    0.0000 C   0  0  0  0  0  0  0  0  0 27  0  0
   -3.2605   -6.6734    0.0000 H   0  0  0  0  0  0  0  0  0  0  0  0
   -4.5000   -8.1506    0.0000 H   0  0  0  0  0  0  0  0  0  0  0  0
   -7.3191   -6.2222    0.0000 C   0  0  0  0  0  0  0  0  0 26  0  0
   -8.5586   -4.7450    0.0000 H   0  0  0  0  0  0  0  0  0  0  0  0
   -7.3191   -3.2678    0.0000 H   0  0  0  0  0  0  0  0  0  0  0  0
   -5.4200   -8.4854    0.0000 H   0  0  0  0  0  0  0  0  0  0  0  0
   -7.3191   -8.1506    0.0000 H   0  0  0  0  0  0  0  0  0  0  0  0
   -8.0691   -7.5213    0.0000 H   0  0  0  0  0  0  0  0  0  0  0  0
   -8.7286   -5.7092    0.0000 H   0  0  0  0  0  0  0  0  0  0  0  0
    3.7500   -1.2990    0.0000 H   0  0  0  0  0  0  0  0  0  0  0  0
  1  2  1  0
  1  3  2  0
  4  1  1  0
  3  5  1  0
  3  6  1  0
  7  4  2  0
  4  8  1  0
  5  9  1  0
  5 10  2  0
 10  7  1  0
  7 11  1  0
  9 12  2  0
  9 13  1  0
 10 14  1  0
 13 15  1  0
 13 16  1  0
 14 17  1  0
 15 18  1  0
 15 19  1  0
 15 20  1  0
 17 21  1  0
 17 22  1  0
 17 23  1  0
 18 24  1  0
 25 18  1  0
 18 26  1  1
 21 27  1  0
 21 28  1  0
 21 29  1  0
 24 30  1  0
 24 31  1  0
 32 25  1  0
 25 33  1  0
 25 34  1  0
 30 35  1  0
 30 36  1  0
 30 37  1  0
 35 32  1  0
 32 38  1  0
 32 39  1  0
 35 40  1  0
 35 41  1  0
  2 42  1  0
M  END
>  <SMILES>  (1) 
O=C(NCC1CCCCN1)c1cc(O)ccc1OCC(F)(F)F

>  <Molecular Weight>  (1) 
332.3

>  <Substrate_ID>  (1) 
MOL0096

>  <Substrate>  (1) 


>  <Substrate_SMILES>  (1) 
O=C(NCC1CCCCN1)c1cc(OCC(F)(F)F)ccc1OCC(F)(F)F

>  <Reaction>  (1) 
O-dealkylation_(aromatic)

>  <Score>  (1) 
0.3586

>  <Reaction_Score>  (1) 
0.356

>  <Bond_Score>  (1) 
0.3612

>  <Rank>  (1) 
1

>  <Subtype>  (1) 
REACTION

>  <Subtype_Scores>  (1) 
[REACTION] SOM_score: 0.3612, Reaction_score: 0.3560, Score: 0.3586


$$$$

     RDKit          2D

  9  8  0  0  0  0  0  0  0  0999 V2000
   -1.5000    0.0000    0.0000 O   0  0  0  0  0  0  0  0  0 29  0  0
    0.0000    0.0000    0.0000 C   0  0  0  0  0  0  0  0  0 16  0  0
    1.5000    0.0000    0.0000 C   0  0  0  0  0  0  0  0  0 17  0  0
    0.0000    1.5000    0.0000 H   0  0  0  0  0  0  0  0  0  0  0  0
   -0.0000   -1.5000    0.0000 H   0  0  0  0  0  0  0  0  0  0  0  0
    3.0000    0.0000    0.0000 F   0  0  0  0  0  0  0  0  0  1  0  0
    1.5000   -1.5000    0.0000 F   0  0  0  0  0  0  0  0  0  2  0  0
    1.5000    1.5000    0.0000 F   0  0  0  0  0  0  0  0  0  3  0  0
   -2.2500   -1.2990    0.0000 H   0  0  0  0  0  0  0  0  0  0  0  0
  1  2  1  0
  3  2  1  0
  2  4  1  0
  2  5  1  0
  6  3  1  0
  3  7  1  0
  3  8  1  0
  1  9  1  0
M  END
>  <SMILES>  (2) 
OCC(F)(F)F

>  <Molecular Weight>  (2) 
100.0

>  <Substrate_ID>  (2) 
MOL0096

>  <Substrate>  (2) 


>  <Substrate_SMILES>  (2) 
O=C(NCC1CCCCN1)c1cc(OCC(F)(F)F)ccc1OCC(F)(F)F

>  <Reaction>  (2) 
O-dealkylation_(aromatic)

>  <Score>  (2) 
0.3586

>  <Reaction_Score>  (2) 
0.356

>  <Bond_Score>  (2) 
0.3612

>  <Rank>  (2) 
1

>  <Subtype>  (2) 
REACTION

>  <Subtype_Scores>  (2) 
[REACTION] SOM_score: 0.3612, Reaction_score: 0.3560, Score: 0.3586


$$$$

     RDKit          2D

 42 43  0  0  0  0  0  0  0  0999 V2000
    1.5000    0.0000    0.0000 C   0  0  0  0  0  0  0  0  0 20  0  0
    3.0000    0.0000    0.0000 O   0  0  0  0  0  0  0  0  0  9  0  0
    0.7500   -1.2990    0.0000 C   0  0  0  0  0  0  0  0  0 13  0  0
    0.7500    1.2990    0.0000 C   0  0  0  0  0  0  0  0  0 19  0  0
   -0.7500   -1.2990    0.0000 C   0  0  0  0  0  0  0  0  0 14  0  0
    1.5000   -2.5981    0.0000 C   0  0  0  0  0  0  0  0  0 12  0  0
   -0.7500    1.2990    0.0000 C   0  0  0  0  0  0  0  0  0 18  0  0
    1.5000    2.5981    0.0000 H   0  0  0  0  0  0  0  0  0  0  0  0
   -1.5000    0.0000    0.0000 C   0  0  0  0  0  0  0  0  0 15  0  0
   -1.5000   -2.5981    0.0000 H   0  0  0  0  0  0  0  0  0  0  0  0
    3.0000   -2.5981    0.0000 O   0  0  0  0  0  0  0  0  0  7  0  0
    0.7500   -3.8971    0.0000 N   0  0  0  0  0  0  0  0  0 10  0  0
   -1.5000    2.5981    0.0000 H   0  0  0  0  0  0  0  0  0  0  0  0
   -3.0000    0.0000    0.0000 O   0  0  0  0  0  0  0  0  0  8  0  0
    1.5000   -5.1962    0.0000 C   0  0  0  0  0  0  0  0  0 23  0  0
   -0.7500   -3.8971    0.0000 H   0  0  0  0  0  0  0  0  0  0  0  0
   -3.7500    1.2990    0.0000 C   0  0  0  0  0  0  0  0  0 16  0  0
    2.2500   -6.4952    0.0000 C   0  0  0  0  0  0  0  0  0 24  0  0
    2.7990   -4.4462    0.0000 H   0  0  0  0  0  0  0  0  0  0  0  0
    0.4934   -5.6234    0.0000 H   0  0  0  0  0  0  0  0  0  0  0  0
   -4.5000    2.5981    0.0000 C   0  0  0  0  0  0  0  0  0 17  0  0
   -2.4510    2.0490    0.0000 H   0  0  0  0  0  0  0  0  0  0  0  0
   -5.0490    0.5490    0.0000 H   0  0  0  0  0  0  0  0  0  0  0  0
    0.8405   -7.0082    0.0000 N   0  0  0  0  0  0  0  0  0 11  0  0
    3.3991   -7.4594    0.0000 C   0  0  0  0  0  0  0  0  0 28  0  0
    3.3991   -5.5310    0.0000 H   0  0  0  0  0  0  0  0  0  0  0  0
   -5.2500    3.8971    0.0000 F   0  0  0  0  0  0  0  0  0  1  0  0
   -3.2010    3.3481    0.0000 F   0  0  0  0  0  0  0  0  0  2  0  0
   -5.7990    1.8481    0.0000 F   0  0  0  0  0  0  0  0  0  3  0  0
    0.5800   -8.4854    0.0000 C   0  0  0  0  0  0  0  0  0 25  0  0
   -0.0766   -6.4127    0.0000 H   0  0  0  0  0  0  0  0  0  0  0  0
    3.1386   -8.9366    0.0000 C   0  0  0  0  0  0  0  0  0 27  0  0
    4.1491   -6.1603    0.0000 H   0  0  0  0  0  0  0  0  0  0  0  0
    4.8086   -7.9724    0.0000 H   0  0  0  0  0  0  0  0  0  0  0  0
    1.7291   -9.4496    0.0000 C   0  0  0  0  0  0  0  0  0 26  0  0
   -0.1700   -9.7845    0.0000 H   0  0  0  0  0  0  0  0  0  0  0  0
   -0.8296   -7.9724    0.0000 H   0  0  0  0  0  0  0  0  0  0  0  0
    4.6386   -8.9366    0.0000 H   0  0  0  0  0  0  0  0  0  0  0  0
    3.3991  -10.4138    0.0000 H   0  0  0  0  0  0  0  0  0  0  0  0
    2.4791  -10.7487    0.0000 H   0  0  0  0  0  0  0  0  0  0  0  0
    0.5800  -10.4138    0.0000 H   0  0  0  0  0  0  0  0  0  0  0  0
    3.7500   -1.2990    0.0000 H   0  0  0  0  0  0  0  0  0  0  0  0
  1  2  1  0
  3  1  2  0
  1  4  1  0
  5  3  1  0
  3  6  1  0
  4  7  2  0
  4  8  1  0
  9  5  2  0
  5 10  1  0
  6 11  2  0
  6 12  1  0
  7  9  1  0
  7 13  1  0
 14  9  1  0
 12 15  1  0
 12 16  1  0
 17 14  1  0
 15 18  1  0
 15 19  1  0
 15 20  1  0
 21 17  1  0
 17 22  1  0
 17 23  1  0
 18 24  1  0
 25 18  1  0
 18 26  1  1
 27 21  1  0
 21 28  1  0
 21 29  1  0
 24 30  1  0
 24 31  1  0
 32 25  1  0
 25 33  1  0
 25 34  1  0
 30 35  1  0
 30 36  1  0
 30 37  1  0
 35 32  1  0
 32 38  1  0
 32 39  1  0
 35 40  1  0
 35 41  1  0
  2 42  1  0
M  END
>  <SMILES>  (3) 
O=C(NCC1CCCCN1)c1cc(OCC(F)(F)F)ccc1O

>  <Molecular Weight>  (3) 
332.3

>  <Substrate_ID>  (3) 
MOL0096

>  <Substrate>  (3) 


>  <Substrate_SMILES>  (3) 
O=C(NCC1CCCCN1)c1cc(OCC(F)(F)F)ccc1OCC(F)(F)F

>  <Reaction>  (3) 
O-dealkylation_(aromatic)

>  <Score>  (3) 
0.3489

>  <Reaction_Score>  (3) 
0.346

>  <Bond_Score>  (3) 
0.3518

>  <Rank>  (3) 
2

>  <Subtype>  (3) 
REACTION

>  <Subtype_Scores>  (3) 
[REACTION] SOM_score: 0.3518, Reaction_score: 0.3460, Score: 0.3489


$$$$

     RDKit          2D

 49 50  0  0  0  0  0  0  0  0999 V2000
    1.5000   -0.0000    0.0000 C   0  0  0  0  0  0  0  0  0 26  0  0
    0.7500   -1.2990    0.0000 C   0  0  0  0  0  0  0  0  0 27  0  0
    2.1595   -1.8121    0.0000 O   0  0  0  0  0  0  0  0  0 29  0  0
   -0.7500   -1.2990    0.0000 C   0  0  0  0  0  0  0  0  0 28  0  0
    0.7500    1.2990    0.0000 C   0  0  0  0  0  0  0  0  0 25  0  0
    2.6491    0.9642    0.0000 H   0  0  0  0  0  0  0  0  0  0  0  0
    2.6491   -0.9642    0.0000 H   0  0  0  0  0  0  0  0  0  0  0  0
   -0.7500    1.2990    0.0000 N   0  0  0  0  0  0  0  0  0 11  0  0
    0.4895    2.7762    0.0000 H   0  0  0  0  0  0  0  0  0  0  0  0
    2.1595    1.8121    0.0000 H   0  0  0  0  0  0  0  0  0  0  0  0
   -1.5000    0.0000    0.0000 C   0  0  0  0  0  0  0  0  0 24  0  0
   -1.5000    2.5981    0.0000 H   0  0  0  0  0  0  0  0  0  0  0  0
   -2.6491   -0.9642    0.0000 C   0  0  0  0  0  0  0  0  0 23  0  0
   -2.6491    0.9642    0.0000 H   0  0  0  0  0  0  0  0  0  0  0  0
   -3.7981   -1.9284    0.0000 N   0  0  0  0  0  0  0  0  0 10  0  0
   -3.6132    0.1849    0.0000 H   0  0  0  0  0  0  0  0  0  0  0  0
   -2.2149   -1.6327    0.0000 H   0  0  0  0  0  0  0  0  0  0  0  0
   -5.2077   -1.4153    0.0000 C   0  0  0  0  0  0  0  0  0 12  0  0
   -3.5377   -3.4056    0.0000 H   0  0  0  0  0  0  0  0  0  0  0  0
   -6.3567   -2.3795    0.0000 C   0  0  0  0  0  0  0  0  0 13  0  0
   -5.4681    0.0619    0.0000 O   0  0  0  0  0  0  0  0  0  7  0  0
   -7.7663   -1.8665    0.0000 C   0  0  0  0  0  0  0  0  0 14  0  0
   -6.0963   -3.8567    0.0000 C   0  0  0  0  0  0  0  0  0 20  0  0
   -8.9153   -2.8307    0.0000 C   0  0  0  0  0  0  0  0  0 15  0  0
   -8.0268   -0.3893    0.0000 H   0  0  0  0  0  0  0  0  0  0  0  0
   -4.6867   -4.3698    0.0000 O   0  0  0  0  0  0  0  0  0  9  0  0
   -7.2453   -4.8209    0.0000 C   0  0  0  0  0  0  0  0  0 19  0  0
  -10.3249   -2.3176    0.0000 O   0  0  0  0  0  0  0  0  0  8  0  0
   -8.6549   -4.3079    0.0000 C   0  0  0  0  0  0  0  0  0 18  0  0
   -4.4263   -5.8470    0.0000 C   0  0  0  0  0  0  0  0  0 21  0  0
   -6.9849   -6.2981    0.0000 H   0  0  0  0  0  0  0  0  0  0  0  0
  -11.4740   -3.2818    0.0000 C   0  0  0  0  0  0  0  0  0 16  0  0
   -9.8039   -5.2721    0.0000 H   0  0  0  0  0  0  0  0  0  0  0  0
   -4.1658   -7.3242    0.0000 C   0  0  0  0  0  0  0  0  0 22  0  0
   -5.9035   -6.1074    0.0000 H   0  0  0  0  0  0  0  0  0  0  0  0
   -2.9490   -5.5865    0.0000 H   0  0  0  0  0  0  0  0  0  0  0  0
  -12.6230   -4.2460    0.0000 C   0  0  0  0  0  0  0  0  0 17  0  0
  -10.5098   -4.4309    0.0000 H   0  0  0  0  0  0  0  0  0  0  0  0
  -12.4381   -2.1327    0.0000 H   0  0  0  0  0  0  0  0  0  0  0  0
   -3.9053   -8.8014    0.0000 F   0  0  0  0  0  0  0  0  0  4  0  0
   -5.6430   -7.5847    0.0000 F   0  0  0  0  0  0  0  0  0  5  0  0
   -2.6886   -7.0637    0.0000 F   0  0  0  0  0  0  0  0  0  6  0  0
  -13.7721   -5.2102    0.0000 F   0  0  0  0  0  0  0  0  0  1  0  0
  -13.5872   -3.0969    0.0000 F   0  0  0  0  0  0  0  0  0  2  0  0
  -11.6588   -5.3951    0.0000 F   0  0  0  0  0  0  0  0  0  3  0  0
    0.4895   -2.7762    0.0000 H   0  0  0  0  0  0  0  0  0  0  0  0
   -0.4895   -2.7762    0.0000 H   0  0  0  0  0  0  0  0  0  0  0  0
   -1.4603   -1.6610    0.0000 H   0  0  0  0  0  0  0  0  0  0  0  0
    2.4200   -3.2893    0.0000 H   0  0  0  0  0  0  0  0  0  0  0  0
  1  2  1  0
  2  3  1  0
  2  4  1  0
  5  1  1  0
  1  6  1  0
  1  7  1  0
  8  5  1  0
  5  9  1  0
  5 10  1  0
 11  8  1  0
  8 12  1  0
 13 11  1  0
  4 11  1  0
 11 14  1  6
 15 13  1  0
 13 16  1  0
 13 17  1  0
 18 15  1  0
 15 19  1  0
 20 18  1  0
 18 21  2  0
 22 20  2  0
 20 23  1  0
 24 22  1  0
 22 25  1  0
 23 26  1  0
 23 27  2  0
 28 24  1  0
 29 24  2  0
 26 30  1  0
 27 29  1  0
 27 31  1  0
 32 28  1  0
 29 33  1  0
 30 34  1  0
 30 35  1  0
 30 36  1  0
 37 32  1  0
 32 38  1  0
 32 39  1  0
 34 40  1  0
 34 41  1  0
 34 42  1  0
 43 37  1  0
 37 44  1  0
 37 45  1  0
  2 46  1  0
  4 47  1  0
  4 48  1  0
  3 49  1  0
M  END
>  <SMILES>  (4) 
O=C(NCC1CC(O)CCN1)c1cc(OCC(F)(F)F)ccc1OCC(F)(F)F

>  <Molecular Weight>  (4) 
430.3

>  <Substrate_ID>  (4) 
MOL0096

>  <Substrate>  (4) 


>  <Substrate_SMILES>  (4) 
O=C(NCC1CCCCN1)c1cc(OCC(F)(F)F)ccc1OCC(F)(F)F

>  <Reaction>  (4) 
aliphatic_hydroxylation_(sec_carbon_in_a_ringA),aliphatic hydroxylation

>  <Score>  (4) 
0.2491

>  <Reaction_Score>  (4) 
0.2587

>  <Bond_Score>  (4) 
0.24

>  <Rank>  (4) 
3

>  <Subtype>  (4) 
REACTION

>  <Subtype_Scores>  (4) 
[REACTION] SOM_score: 0.2400, Reaction_score: 0.2587, Score: 0.2491


$$$$

     RDKit          2D

 49 50  0  0  0  0  0  0  0  0999 V2000
    1.5000   -0.0000    0.0000 C   0  0  0  0  0  0  0  0  0 26  0  0
    0.7500   -1.2990    0.0000 C   0  0  0  0  0  0  0  0  0 25  0  0
    2.1595   -1.8121    0.0000 O   0  0  0  0  0  0  0  0  0 29  0  0
   -0.7500   -1.2990    0.0000 N   0  0  0  0  0  0  0  0  0 11  0  0
    0.7500    1.2990    0.0000 C   0  0  0  0  0  0  0  0  0 27  0  0
    2.6491    0.9642    0.0000 H   0  0  0  0  0  0  0  0  0  0  0  0
    2.6491   -0.9642    0.0000 H   0  0  0  0  0  0  0  0  0  0  0  0
   -0.7500    1.2990    0.0000 C   0  0  0  0  0  0  0  0  0 28  0  0
    0.4895    2.7762    0.0000 H   0  0  0  0  0  0  0  0  0  0  0  0
    2.1595    1.8121    0.0000 H   0  0  0  0  0  0  0  0  0  0  0  0
   -1.5000    0.0000    0.0000 C   0  0  0  0  0  0  0  0  0 24  0  0
   -2.1595    1.8121    0.0000 H   0  0  0  0  0  0  0  0  0  0  0  0
   -0.4895    2.7762    0.0000 H   0  0  0  0  0  0  0  0  0  0  0  0
   -2.6491   -0.9642    0.0000 C   0  0  0  0  0  0  0  0  0 23  0  0
   -2.6491    0.9642    0.0000 H   0  0  0  0  0  0  0  0  0  0  0  0
   -3.7981   -1.9284    0.0000 N   0  0  0  0  0  0  0  0  0 10  0  0
   -3.6132    0.1849    0.0000 H   0  0  0  0  0  0  0  0  0  0  0  0
   -2.0535   -1.8813    0.0000 H   0  0  0  0  0  0  0  0  0  0  0  0
   -5.2077   -1.4153    0.0000 C   0  0  0  0  0  0  0  0  0 12  0  0
   -3.5377   -3.4056    0.0000 H   0  0  0  0  0  0  0  0  0  0  0  0
   -6.3567   -2.3795    0.0000 C   0  0  0  0  0  0  0  0  0 13  0  0
   -5.4681    0.0619    0.0000 O   0  0  0  0  0  0  0  0  0  7  0  0
   -7.7663   -1.8665    0.0000 C   0  0  0  0  0  0  0  0  0 14  0  0
   -6.0963   -3.8567    0.0000 C   0  0  0  0  0  0  0  0  0 20  0  0
   -8.9153   -2.8307    0.0000 C   0  0  0  0  0  0  0  0  0 15  0  0
   -8.0268   -0.3893    0.0000 H   0  0  0  0  0  0  0  0  0  0  0  0
   -4.6867   -4.3698    0.0000 O   0  0  0  0  0  0  0  0  0  9  0  0
   -7.2453   -4.8209    0.0000 C   0  0  0  0  0  0  0  0  0 19  0  0
  -10.3249   -2.3176    0.0000 O   0  0  0  0  0  0  0  0  0  8  0  0
   -8.6549   -4.3079    0.0000 C   0  0  0  0  0  0  0  0  0 18  0  0
   -4.4263   -5.8470    0.0000 C   0  0  0  0  0  0  0  0  0 21  0  0
   -6.9849   -6.2981    0.0000 H   0  0  0  0  0  0  0  0  0  0  0  0
  -11.4740   -3.2818    0.0000 C   0  0  0  0  0  0  0  0  0 16  0  0
   -9.8039   -5.2721    0.0000 H   0  0  0  0  0  0  0  0  0  0  0  0
   -4.1658   -7.3242    0.0000 C   0  0  0  0  0  0  0  0  0 22  0  0
   -5.9035   -6.1074    0.0000 H   0  0  0  0  0  0  0  0  0  0  0  0
   -2.9490   -5.5865    0.0000 H   0  0  0  0  0  0  0  0  0  0  0  0
  -12.6230   -4.2460    0.0000 C   0  0  0  0  0  0  0  0  0 17  0  0
  -10.5098   -4.4309    0.0000 H   0  0  0  0  0  0  0  0  0  0  0  0
  -12.4381   -2.1327    0.0000 H   0  0  0  0  0  0  0  0  0  0  0  0
   -3.9053   -8.8014    0.0000 F   0  0  0  0  0  0  0  0  0  4  0  0
   -5.6430   -7.5847    0.0000 F   0  0  0  0  0  0  0  0  0  5  0  0
   -2.6886   -7.0637    0.0000 F   0  0  0  0  0  0  0  0  0  6  0  0
  -13.7721   -5.2102    0.0000 F   0  0  0  0  0  0  0  0  0  1  0  0
  -13.5872   -3.0969    0.0000 F   0  0  0  0  0  0  0  0  0  2  0  0
  -11.6588   -5.3951    0.0000 F   0  0  0  0  0  0  0  0  0  3  0  0
    0.4895   -2.7762    0.0000 H   0  0  0  0  0  0  0  0  0  0  0  0
   -1.1772   -2.3056    0.0000 H   0  0  0  0  0  0  0  0  0  0  0  0
    2.4200   -3.2893    0.0000 H   0  0  0  0  0  0  0  0  0  0  0  0
  1  2  1  0
  2  3  1  0
  2  4  1  0
  1  5  1  0
  1  6  1  0
  1  7  1  0
  5  8  1  0
  5  9  1  0
  5 10  1  0
  8 11  1  0
  8 12  1  0
  8 13  1  0
 14 11  1  0
 11  4  1  0
 11 15  1  1
 16 14  1  0
 14 17  1  0
 14 18  1  0
 19 16  1  0
 16 20  1  0
 21 19  1  0
 19 22  2  0
 23 21  2  0
 21 24  1  0
 25 23  1  0
 23 26  1  0
 24 27  1  0
 24 28  2  0
 29 25  1  0
 30 25  2  0
 27 31  1  0
 28 30  1  0
 28 32  1  0
 33 29  1  0
 30 34  1  0
 31 35  1  0
 31 36  1  0
 31 37  1  0
 38 33  1  0
 33 39  1  0
 33 40  1  0
 35 41  1  0
 35 42  1  0
 35 43  1  0
 44 38  1  0
 38 45  1  0
 38 46  1  0
  2 47  1  0
  4 48  1  0
  3 49  1  0
M  END
>  <SMILES>  (5) 
O=C(NCC1CCCC(O)N1)c1cc(OCC(F)(F)F)ccc1OCC(F)(F)F

>  <Molecular Weight>  (5) 
430.3

>  <Substrate_ID>  (5) 
MOL0096

>  <Substrate>  (5) 


>  <Substrate_SMILES>  (5) 
O=C(NCC1CCCCN1)c1cc(OCC(F)(F)F)ccc1OCC(F)(F)F

>  <Reaction>  (5) 
aliphatic_hydroxylation_(sec_carbon_next_to_SP2,in_a_ring),aliphatic hydroxylation

>  <Score>  (5) 
0.1999

>  <Reaction_Score>  (5) 
0.1635

>  <Bond_Score>  (5) 
0.2445

>  <Rank>  (5) 
4

>  <Subtype>  (5) 
REACTION

>  <Subtype_Scores>  (5) 
[REACTION] SOM_score: 0.2445, Reaction_score: 0.1635, Score: 0.1999


$$$$

     RDKit          2D

 47 48  0  0  0  0  0  0  0  0999 V2000
    1.5000   -0.0000    0.0000 C   0  0  0  0  0  0  0  0  0 26  0  0
    0.7500   -1.2990    0.0000 C   0  0  0  0  0  0  0  0  0 25  0  0
    1.5000   -2.5981    0.0000 O   0  0  0  0  0  0  0  0  0 29  0  0
   -0.7500   -1.2990    0.0000 N   0  0  0  0  0  0  0  0  0 11  0  0
    0.7500    1.2990    0.0000 C   0  0  0  0  0  0  0  0  0 27  0  0
    2.6491    0.9642    0.0000 H   0  0  0  0  0  0  0  0  0  0  0  0
    2.6491   -0.9642    0.0000 H   0  0  0  0  0  0  0  0  0  0  0  0
   -0.7500    1.2990    0.0000 C   0  0  0  0  0  0  0  0  0 28  0  0
    0.4895    2.7762    0.0000 H   0  0  0  0  0  0  0  0  0  0  0  0
    2.1595    1.8121    0.0000 H   0  0  0  0  0  0  0  0  0  0  0  0
   -1.5000    0.0000    0.0000 C   0  0  0  0  0  0  0  0  0 24  0  0
   -2.1595    1.8121    0.0000 H   0  0  0  0  0  0  0  0  0  0  0  0
   -0.4895    2.7762    0.0000 H   0  0  0  0  0  0  0  0  0  0  0  0
   -2.6491   -0.9642    0.0000 C   0  0  0  0  0  0  0  0  0 23  0  0
   -2.6491    0.9642    0.0000 H   0  0  0  0  0  0  0  0  0  0  0  0
   -3.7981   -1.9284    0.0000 N   0  0  0  0  0  0  0  0  0 10  0  0
   -3.6132    0.1849    0.0000 H   0  0  0  0  0  0  0  0  0  0  0  0
   -2.0535   -1.8813    0.0000 H   0  0  0  0  0  0  0  0  0  0  0  0
   -5.2077   -1.4153    0.0000 C   0  0  0  0  0  0  0  0  0 12  0  0
   -3.5377   -3.4056    0.0000 H   0  0  0  0  0  0  0  0  0  0  0  0
   -6.3567   -2.3795    0.0000 C   0  0  0  0  0  0  0  0  0 13  0  0
   -5.4681    0.0619    0.0000 O   0  0  0  0  0  0  0  0  0  7  0  0
   -7.7663   -1.8665    0.0000 C   0  0  0  0  0  0  0  0  0 14  0  0
   -6.0963   -3.8567    0.0000 C   0  0  0  0  0  0  0  0  0 20  0  0
   -8.9153   -2.8307    0.0000 C   0  0  0  0  0  0  0  0  0 15  0  0
   -8.0268   -0.3893    0.0000 H   0  0  0  0  0  0  0  0  0  0  0  0
   -4.6867   -4.3698    0.0000 O   0  0  0  0  0  0  0  0  0  9  0  0
   -7.2453   -4.8209    0.0000 C   0  0  0  0  0  0  0  0  0 19  0  0
  -10.3249   -2.3176    0.0000 O   0  0  0  0  0  0  0  0  0  8  0  0
   -8.6549   -4.3079    0.0000 C   0  0  0  0  0  0  0  0  0 18  0  0
   -4.4263   -5.8470    0.0000 C   0  0  0  0  0  0  0  0  0 21  0  0
   -6.9849   -6.2981    0.0000 H   0  0  0  0  0  0  0  0  0  0  0  0
  -11.4740   -3.2818    0.0000 C   0  0  0  0  0  0  0  0  0 16  0  0
   -9.8039   -5.2721    0.0000 H   0  0  0  0  0  0  0  0  0  0  0  0
   -4.1658   -7.3242    0.0000 C   0  0  0  0  0  0  0  0  0 22  0  0
   -5.9035   -6.1074    0.0000 H   0  0  0  0  0  0  0  0  0  0  0  0
   -2.9490   -5.5865    0.0000 H   0  0  0  0  0  0  0  0  0  0  0  0
  -12.6230   -4.2460    0.0000 C   0  0  0  0  0  0  0  0  0 17  0  0
  -10.5098   -4.4309    0.0000 H   0  0  0  0  0  0  0  0  0  0  0  0
  -12.4381   -2.1327    0.0000 H   0  0  0  0  0  0  0  0  0  0  0  0
   -3.9053   -8.8014    0.0000 F   0  0  0  0  0  0  0  0  0  4  0  0
   -5.6430   -7.5847    0.0000 F   0  0  0  0  0  0  0  0  0  5  0  0
   -2.6886   -7.0637    0.0000 F   0  0  0  0  0  0  0  0  0  6  0  0
  -13.7721   -5.2102    0.0000 F   0  0  0  0  0  0  0  0  0  1  0  0
  -13.5872   -3.0969    0.0000 F   0  0  0  0  0  0  0  0  0  2  0  0
  -11.6588   -5.3951    0.0000 F   0  0  0  0  0  0  0  0  0  3  0  0
   -1.1772   -2.3056    0.0000 H   0  0  0  0  0  0  0  0  0  0  0  0
  1  2  1  0
  2  3  2  0
  2  4  1  0
  1  5  1  0
  1  6  1  0
  1  7  1  0
  5  8  1  0
  5  9  1  0
  5 10  1  0
  8 11  1  0
  8 12  1  0
  8 13  1  0
 14 11  1  0
 11  4  1  0
 11 15  1  1
 16 14  1  0
 14 17  1  0
 14 18  1  0
 19 16  1  0
 16 20  1  0
 21 19  1  0
 19 22  2  0
 23 21  2  0
 21 24  1  0
 25 23  1  0
 23 26  1  0
 24 27  1  0
 24 28  2  0
 29 25  1  0
 30 25  2  0
 27 31  1  0
 28 30  1  0
 28 32  1  0
 33 29  1  0
 30 34  1  0
 31 35  1  0
 31 36  1  0
 31 37  1  0
 38 33  1  0
 33 39  1  0
 33 40  1  0
 35 41  1  0
 35 42  1  0
 35 43  1  0
 44 38  1  0
 38 45  1  0
 38 46  1  0
  4 47  1  0
M  END
>  <SMILES>  (6) 
O=C1CCCC(CNC(=O)c2cc(OCC(F)(F)F)ccc2OCC(F)(F)F)N1

>  <Molecular Weight>  (6) 
428.3

>  <Substrate_ID>  (6) 
MOL0096

>  <Substrate>  (6) 


>  <Substrate_SMILES>  (6) 
O=C(NCC1CCCCN1)c1cc(OCC(F)(F)F)ccc1OCC(F)(F)F

>  <Reaction>  (6) 
oxidation_(amine_in_a_ring)

>  <Score>  (6) 
0.1999

>  <Reaction_Score>  (6) 
0.1635

>  <Bond_Score>  (6) 
0.2445

>  <Rank>  (6) 
4

>  <Subtype>  (6) 
REACTION

>  <Subtype_Scores>  (6) 
[REACTION] SOM_score: 0.2445, Reaction_score: 0.1635, Score: 0.1999


$$$$

     RDKit          2D

 49 50  0  0  0  0  0  0  0  0999 V2000
    1.5000    0.0000    0.0000 C   0  0  0  0  0  0  0  0  0 25  0  0
    0.7500   -1.2990    0.0000 C   0  0  0  0  0  0  0  0  0 26  0  0
    2.1595   -1.8121    0.0000 O   0  0  0  0  0  0  0  0  0 29  0  0
   -0.7500   -1.2990    0.0000 C   0  0  0  0  0  0  0  0  0 27  0  0
    0.7500    1.2990    0.0000 N   0  0  0  0  0  0  0  0  0 11  0  0
    2.6491    0.9642    0.0000 H   0  0  0  0  0  0  0  0  0  0  0  0
    2.6491   -0.9642    0.0000 H   0  0  0  0  0  0  0  0  0  0  0  0
   -0.7500    1.2990    0.0000 C   0  0  0  0  0  0  0  0  0 24  0  0
    1.5000    2.5981    0.0000 H   0  0  0  0  0  0  0  0  0  0  0  0
   -2.1595    1.8121    0.0000 C   0  0  0  0  0  0  0  0  0 23  0  0
   -1.5000    0.0000    0.0000 C   0  0  0  0  0  0  0  0  0 28  0  0
   -0.4895    2.7762    0.0000 H   0  0  0  0  0  0  0  0  0  0  0  0
   -3.5691    2.3251    0.0000 N   0  0  0  0  0  0  0  0  0 10  0  0
   -1.6465    3.2216    0.0000 H   0  0  0  0  0  0  0  0  0  0  0  0
   -2.5215    1.1018    0.0000 H   0  0  0  0  0  0  0  0  0  0  0  0
   -2.6491   -0.9642    0.0000 H   0  0  0  0  0  0  0  0  0  0  0  0
   -2.1686    0.4341    0.0000 H   0  0  0  0  0  0  0  0  0  0  0  0
   -3.8296    3.8023    0.0000 C   0  0  0  0  0  0  0  0  0 12  0  0
   -4.7181    1.3609    0.0000 H   0  0  0  0  0  0  0  0  0  0  0  0
   -5.2391    4.3153    0.0000 C   0  0  0  0  0  0  0  0  0 13  0  0
   -2.6805    4.7665    0.0000 O   0  0  0  0  0  0  0  0  0  7  0  0
   -5.4996    5.7926    0.0000 C   0  0  0  0  0  0  0  0  0 14  0  0
   -6.3882    3.3512    0.0000 C   0  0  0  0  0  0  0  0  0 20  0  0
   -6.9091    6.3056    0.0000 C   0  0  0  0  0  0  0  0  0 15  0  0
   -4.3505    6.7567    0.0000 H   0  0  0  0  0  0  0  0  0  0  0  0
   -6.1277    1.8739    0.0000 O   0  0  0  0  0  0  0  0  0  9  0  0
   -7.7977    3.8642    0.0000 C   0  0  0  0  0  0  0  0  0 19  0  0
   -7.1696    7.7828    0.0000 O   0  0  0  0  0  0  0  0  0  8  0  0
   -8.0582    5.3414    0.0000 C   0  0  0  0  0  0  0  0  0 18  0  0
   -7.2768    0.9098    0.0000 C   0  0  0  0  0  0  0  0  0 21  0  0
   -8.9468    2.9000    0.0000 H   0  0  0  0  0  0  0  0  0  0  0  0
   -8.5791    8.2958    0.0000 C   0  0  0  0  0  0  0  0  0 16  0  0
   -9.4677    5.8544    0.0000 H   0  0  0  0  0  0  0  0  0  0  0  0
   -8.4258   -0.0544    0.0000 C   0  0  0  0  0  0  0  0  0 22  0  0
   -8.2409    2.0588    0.0000 H   0  0  0  0  0  0  0  0  0  0  0  0
   -6.3126   -0.2393    0.0000 H   0  0  0  0  0  0  0  0  0  0  0  0
   -9.9887    8.8089    0.0000 C   0  0  0  0  0  0  0  0  0 17  0  0
   -9.0921    6.8863    0.0000 H   0  0  0  0  0  0  0  0  0  0  0  0
   -8.0661    9.7054    0.0000 H   0  0  0  0  0  0  0  0  0  0  0  0
   -9.5749   -1.0186    0.0000 F   0  0  0  0  0  0  0  0  0  4  0  0
   -9.3900    1.0947    0.0000 F   0  0  0  0  0  0  0  0  0  5  0  0
   -7.4616   -1.2035    0.0000 F   0  0  0  0  0  0  0  0  0  6  0  0
  -11.3982    9.3219    0.0000 F   0  0  0  0  0  0  0  0  0  1  0  0
   -9.4756   10.2184    0.0000 F   0  0  0  0  0  0  0  0  0  2  0  0
  -10.5017    7.3993    0.0000 F   0  0  0  0  0  0  0  0  0  3  0  0
    0.4895   -2.7762    0.0000 H   0  0  0  0  0  0  0  0  0  0  0  0
   -0.4895   -2.7762    0.0000 H   0  0  0  0  0  0  0  0  0  0  0  0
   -2.1595   -1.8121    0.0000 H   0  0  0  0  0  0  0  0  0  0  0  0
    2.4200   -3.2893    0.0000 H   0  0  0  0  0  0  0  0  0  0  0  0
  1  2  1  0
  2  3  1  0
  2  4  1  0
  5  1  1  0
  1  6  1  0
  1  7  1  0
  8  5  1  0
  5  9  1  0
 10  8  1  0
 11  8  1  0
  8 12  1  6
 13 10  1  0
 10 14  1  0
 10 15  1  0
  4 11  1  0
 11 16  1  0
 11 17  1  0
 18 13  1  0
 13 19  1  0
 20 18  1  0
 18 21  2  0
 22 20  2  0
 20 23  1  0
 24 22  1  0
 22 25  1  0
 23 26  1  0
 23 27  2  0
 28 24  1  0
 29 24  2  0
 26 30  1  0
 27 29  1  0
 27 31  1  0
 32 28  1  0
 29 33  1  0
 30 34  1  0
 30 35  1  0
 30 36  1  0
 37 32  1  0
 32 38  1  0
 32 39  1  0
 34 40  1  0
 34 41  1  0
 34 42  1  0
 43 37  1  0
 37 44  1  0
 37 45  1  0
  2 46  1  0
  4 47  1  0
  4 48  1  0
  3 49  1  0
M  END
>  <SMILES>  (7) 
O=C(NCC1CCC(O)CN1)c1cc(OCC(F)(F)F)ccc1OCC(F)(F)F

>  <Molecular Weight>  (7) 
430.3

>  <Substrate_ID>  (7) 
MOL0096

>  <Substrate>  (7) 


>  <Substrate_SMILES>  (7) 
O=C(NCC1CCCCN1)c1cc(OCC(F)(F)F)ccc1OCC(F)(F)F

>  <Reaction>  (7) 
aliphatic_hydroxylation_(sec_carbon_in_a_ringA),aliphatic hydroxylation

>  <Score>  (7) 
0.1515

>  <Reaction_Score>  (7) 
0.1498

>  <Bond_Score>  (7) 
0.1532

>  <Rank>  (7) 
5

>  <Subtype>  (7) 
REACTION

>  <Subtype_Scores>  (7) 
[REACTION] SOM_score: 0.1532, Reaction_score: 0.1498, Score: 0.1515


$$$$
