
     RDKit          2D

 41 42  0  0  0  0  0  0  0  0999 V2000
    3.0000   -5.1962    0.0000 N   0  0  0  0  0  0  0  0  0  3  0  0
    2.2500   -3.8971    0.0000 C   0  0  0  0  0  0  0  0  0 13  0  0
    4.5000   -5.1962    0.0000 C   0  0  0  0  0  0  0  0  0  5  0  0
    1.5000   -2.5981    0.0000 C   0  0  0  0  0  0  0  0  0 18  0  0
    3.5490   -3.1471    0.0000 H   0  0  0  0  0  0  0  0  0  0  0  0
    1.7484   -4.5167    0.0000 H   0  0  0  0  0  0  0  0  0  0  0  0
    0.7500   -1.2990    0.0000 C   0  0  0  0  0  0  0  0  0 17  0  0
    0.2010   -3.3481    0.0000 C   0  0  0  0  0  0  0  0  0 19  0  0
    2.7990   -1.8481    0.0000 H   0  0  0  0  0  0  0  0  0  0  0  0
    1.5000    0.0000    0.0000 C   0  0  0  0  0  0  0  0  0  8  0  0
   -0.7500   -1.2990    0.0000 C   0  0  0  0  0  0  0  0  0  9  0  0
    1.1651   -4.4971    0.0000 O   0  0  0  0  0  0  0  0  0  2  0  0
   -0.3121   -1.9385    0.0000 C   0  0  0  0  0  0  0  0  0 14  0  0
   -0.7632   -4.4971    0.0000 C   0  0  0  0  0  0  0  0  0 15  0  0
    0.7500    1.2990    0.0000 C   0  0  0  0  0  0  0  0  0  6  0  0
    3.0000    0.0000    0.0000 H   0  0  0  0  0  0  0  0  0  0  0  0
   -1.5000    0.0000    0.0000 C   0  0  0  0  0  0  0  0  0  7  0  0
   -1.5000   -2.5981    0.0000 H   0  0  0  0  0  0  0  0  0  0  0  0
    0.8278   -5.9587    0.0000 H   0  0  0  0  0  0  0  0  0  0  0  0
   -1.7893   -1.6781    0.0000 C   0  0  0  0  0  0  0  0  0 11  0  0
   -0.3121   -0.4385    0.0000 H   0  0  0  0  0  0  0  0  0  0  0  0
    1.0582   -1.3284    0.0000 H   0  0  0  0  0  0  0  0  0  0  0  0
   -2.2404   -4.2367    0.0000 C   0  0  0  0  0  0  0  0  0 12  0  0
    0.3157   -5.5392    0.0000 H   0  0  0  0  0  0  0  0  0  0  0  0
   -1.2762   -5.9067    0.0000 H   0  0  0  0  0  0  0  0  0  0  0  0
   -0.7500    1.2990    0.0000 C   0  0  0  0  0  0  0  0  0 16  0  0
    1.5000    2.5981    0.0000 H   0  0  0  0  0  0  0  0  0  0  0  0
   -3.0000    0.0000    0.0000 H   0  0  0  0  0  0  0  0  0  0  0  0
   -2.7535   -2.8271    0.0000 C   0  0  0  0  0  0  0  0  0 10  0  0
   -3.0883   -0.9281    0.0000 H   0  0  0  0  0  0  0  0  0  0  0  0
   -1.6326   -0.1863    0.0000 H   0  0  0  0  0  0  0  0  0  0  0  0
   -2.2404   -5.7367    0.0000 H   0  0  0  0  0  0  0  0  0  0  0  0
   -3.7176   -4.4971    0.0000 H   0  0  0  0  0  0  0  0  0  0  0  0
   -1.5000    2.5981    0.0000 O   0  0  0  0  0  0  0  0  0  1  0  0
   -4.0525   -3.5771    0.0000 H   0  0  0  0  0  0  0  0  0  0  0  0
   -3.7176   -1.6781    0.0000 H   0  0  0  0  0  0  0  0  0  0  0  0
   -0.7500    3.8971    0.0000 H   0  0  0  0  0  0  0  0  0  0  0  0
    6.0000   -5.1962    0.0000 H   0  0  0  0  0  0  0  0  0  0  0  0
    4.5000   -6.6962    0.0000 H   0  0  0  0  0  0  0  0  0  0  0  0
    4.5000   -3.6962    0.0000 H   0  0  0  0  0  0  0  0  0  0  0  0
    2.2500   -6.4952    0.0000 H   0  0  0  0  0  0  0  0  0  0  0  0
  1  2  1  0
  1  3  1  0
  4  2  1  0
  2  5  1  0
  2  6  1  0
  7  4  1  0
  4  8  1  0
  4  9  1  1
 10  7  2  0
  7 11  1  0
  8 12  1  0
  8 13  1  0
 14  8  1  0
 15 10  1  0
 10 16  1  0
 11 17  2  0
 11 18  1  0
 12 19  1  0
 13 20  1  0
 13 21  1  0
 13 22  1  0
 23 14  1  0
 14 24  1  0
 14 25  1  0
 26 15  2  0
 15 27  1  0
 17 26  1  0
 17 28  1  0
 20 29  1  0
 20 30  1  0
 20 31  1  0
 29 23  1  0
 23 32  1  0
 23 33  1  0
 34 26  1  0
 29 35  1  0
 29 36  1  0
 34 37  1  0
  3 38  1  0
  3 39  1  0
  3 40  1  0
  1 41  1  0
M  END
>  <SMILES>  (1) 
CNCC(c1ccc(O)cc1)C1(O)CCCCC1

>  <Molecular Weight>  (1) 
249.4

>  <Substrate_ID>  (1) 
MOL0029

>  <Substrate>  (1) 


>  <Substrate_SMILES>  (1) 
CN(C)CC(c1ccc(O)cc1)C1(O)CCCCC1

>  <Reaction>  (1) 
N-demethylation_(tertiary_amine)

>  <Score>  (1) 
0.8885

>  <Reaction_Score>  (1) 
0.8748

>  <Bond_Score>  (1) 
0.9024

>  <Rank>  (1) 
1

>  <Subtype>  (1) 
REACTION

>  <Subtype_Scores>  (1) 
[REACTION] SOM_score: 0.9024, Reaction_score: 0.8748, Score: 0.8885


$$$$

     RDKit          2D

 45 46  0  0  0  0  0  0  0  0999 V2000
    1.5000    0.0000    0.0000 C   0  0  0  0  0  0  0  0  0 11  0  0
    0.7500   -1.2990    0.0000 C   0  0  0  0  0  0  0  0  0 10  0  0
    2.1595   -1.8121    0.0000 O   0  0  0  0  0  0  0  0  0 20  0  0
   -0.7500   -1.2990    0.0000 C   0  0  0  0  0  0  0  0  0 12  0  0
    0.7500    1.2990    0.0000 C   0  0  0  0  0  0  0  0  0 14  0  0
    2.6491    0.9642    0.0000 H   0  0  0  0  0  0  0  0  0  0  0  0
    2.6491   -0.9642    0.0000 H   0  0  0  0  0  0  0  0  0  0  0  0
   -0.7500    1.2990    0.0000 C   0  0  0  0  0  0  0  0  0 19  0  0
    0.6985    2.2818    0.0000 H   0  0  0  0  0  0  0  0  0  0  0  0
    2.1595    1.8121    0.0000 H   0  0  0  0  0  0  0  0  0  0  0  0
   -2.1595    1.8121    0.0000 C   0  0  0  0  0  0  0  0  0 18  0  0
   -0.4895    2.7762    0.0000 O   0  0  0  0  0  0  0  0  0  2  0  0
   -1.5000    0.0000    0.0000 C   0  0  0  0  0  0  0  0  0 15  0  0
   -3.5691    2.3251    0.0000 C   0  0  0  0  0  0  0  0  0 17  0  0
   -2.6726    0.4025    0.0000 C   0  0  0  0  0  0  0  0  0 13  0  0
   -1.6465    3.2216    0.0000 H   0  0  0  0  0  0  0  0  0  0  0  0
    0.3873    3.2231    0.0000 H   0  0  0  0  0  0  0  0  0  0  0  0
   -2.3816   -1.2136    0.0000 H   0  0  0  0  0  0  0  0  0  0  0  0
   -2.2165    0.3494    0.0000 H   0  0  0  0  0  0  0  0  0  0  0  0
   -3.8296    3.8023    0.0000 C   0  0  0  0  0  0  0  0  0  8  0  0
   -4.7181    1.3609    0.0000 C   0  0  0  0  0  0  0  0  0  9  0  0
   -3.1856   -1.0070    0.0000 N   0  0  0  0  0  0  0  0  0  3  0  0
   -4.1644    0.5592    0.0000 H   0  0  0  0  0  0  0  0  0  0  0  0
   -1.4291   -0.4363    0.0000 H   0  0  0  0  0  0  0  0  0  0  0  0
   -5.2391    4.3153    0.0000 C   0  0  0  0  0  0  0  0  0  6  0  0
   -2.6805    4.7665    0.0000 H   0  0  0  0  0  0  0  0  0  0  0  0
   -6.1277    1.8739    0.0000 C   0  0  0  0  0  0  0  0  0  7  0  0
   -4.6397   -0.1370    0.0000 H   0  0  0  0  0  0  0  0  0  0  0  0
   -4.6628   -1.2675    0.0000 C   0  0  0  0  0  0  0  0  0  4  0  0
   -2.2214   -2.1561    0.0000 C   0  0  0  0  0  0  0  0  0  5  0  0
   -6.3882    3.3512    0.0000 C   0  0  0  0  0  0  0  0  0 16  0  0
   -5.4996    5.7926    0.0000 H   0  0  0  0  0  0  0  0  0  0  0  0
   -7.2768    0.9098    0.0000 H   0  0  0  0  0  0  0  0  0  0  0  0
   -6.1400   -1.5280    0.0000 H   0  0  0  0  0  0  0  0  0  0  0  0
   -4.4023   -2.7447    0.0000 H   0  0  0  0  0  0  0  0  0  0  0  0
   -5.1014    0.1670    0.0000 H   0  0  0  0  0  0  0  0  0  0  0  0
   -1.2572   -3.3051    0.0000 H   0  0  0  0  0  0  0  0  0  0  0  0
   -3.3705   -3.1203    0.0000 H   0  0  0  0  0  0  0  0  0  0  0  0
   -0.8732   -1.4986    0.0000 H   0  0  0  0  0  0  0  0  0  0  0  0
   -7.7977    3.8642    0.0000 O   0  0  0  0  0  0  0  0  0  1  0  0
   -8.0582    5.3414    0.0000 H   0  0  0  0  0  0  0  0  0  0  0  0
    0.4895   -2.7762    0.0000 H   0  0  0  0  0  0  0  0  0  0  0  0
   -0.4895   -2.7762    0.0000 H   0  0  0  0  0  0  0  0  0  0  0  0
   -1.9935   -2.1379    0.0000 H   0  0  0  0  0  0  0  0  0  0  0  0
    2.4200   -3.2893    0.0000 H   0  0  0  0  0  0  0  0  0  0  0  0
  1  2  1  0
  2  3  1  0
  2  4  1  0
  5  1  1  0
  1  6  1  0
  1  7  1  0
  8  5  1  0
  5  9  1  0
  5 10  1  0
 11  8  1  0
  8 12  1  0
 13  8  1  0
 14 11  1  0
 11 15  1  0
 11 16  1  6
 12 17  1  0
  4 13  1  0
 13 18  1  0
 13 19  1  0
 20 14  2  0
 14 21  1  0
 15 22  1  0
 15 23  1  0
 15 24  1  0
 25 20  1  0
 20 26  1  0
 21 27  2  0
 21 28  1  0
 22 29  1  0
 22 30  1  0
 31 25  2  0
 25 32  1  0
 27 31  1  0
 27 33  1  0
 29 34  1  0
 29 35  1  0
 29 36  1  0
 30 37  1  0
 30 38  1  0
 30 39  1  0
 40 31  1  0
 40 41  1  0
  2 42  1  0
  4 43  1  0
  4 44  1  0
  3 45  1  0
M  END
>  <SMILES>  (2) 
CN(C)CC(c1ccc(O)cc1)C1(O)CCC(O)CC1

>  <Molecular Weight>  (2) 
279.4

>  <Substrate_ID>  (2) 
MOL0029

>  <Substrate>  (2) 


>  <Substrate_SMILES>  (2) 
CN(C)CC(c1ccc(O)cc1)C1(O)CCCCC1

>  <Reaction>  (2) 
aliphatic_hydroxylation_(sec_carbon_in_a_ringA),aliphatic hydroxylation

>  <Score>  (2) 
0.2409

>  <Reaction_Score>  (2) 
0.2389

>  <Bond_Score>  (2) 
0.2429

>  <Rank>  (2) 
2

>  <Subtype>  (2) 
REACTION

>  <Subtype_Scores>  (2) 
[REACTION] SOM_score: 0.2429, Reaction_score: 0.2389, Score: 0.2409


$$$$
