
     RDKit          2D

 40 41  0  0  0  0  0  0  0  0999 V2000
   -0.9791    2.9544    0.0000 N   0  0  0  0  0  0  0  0  0  2  0  0
   -2.3886    2.4414    0.0000 C   0  0  0  0  0  0  0  0  0 21  0  0
    0.1700    1.9902    0.0000 C   0  0  0  0  0  0  0  0  0 22  0  0
   -2.6491    0.9642    0.0000 C   0  0  0  0  0  0  0  0  0 18  0  0
   -2.6491    3.9186    0.0000 H   0  0  0  0  0  0  0  0  0  0  0  0
   -3.6036    2.4414    0.0000 H   0  0  0  0  0  0  0  0  0  0  0  0
   -0.0905    0.5130    0.0000 C   0  0  0  0  0  0  0  0  0 19  0  0
    1.5796    1.4772    0.0000 H   0  0  0  0  0  0  0  0  0  0  0  0
    0.9200    3.2893    0.0000 H   0  0  0  0  0  0  0  0  0  0  0  0
   -1.5000   -0.0000    0.0000 C   0  0  0  0  0  0  0  0  0 26  0  0
   -3.7316    1.5158    0.0000 H   0  0  0  0  0  0  0  0  0  0  0  0
   -3.4087    0.1776    0.0000 H   0  0  0  0  0  0  0  0  0  0  0  0
    0.1700   -0.9642    0.0000 H   0  0  0  0  0  0  0  0  0  0  0  0
    1.4095    0.5130    0.0000 H   0  0  0  0  0  0  0  0  0  0  0  0
   -2.6491   -0.9642    0.0000 N   0  0  0  0  0  0  0  0  0  3  0  0
   -0.7500   -1.2990    0.0000 H   0  0  0  0  0  0  0  0  0  0  0  0
   -4.0586   -0.4512    0.0000 C   0  0  0  0  0  0  0  0  0 23  0  0
   -2.3886   -2.4414    0.0000 C   0  0  0  0  0  0  0  0  0 25  0  0
   -4.4972    0.9833    0.0000 O   0  0  0  0  0  0  0  0  0  1  0  0
   -5.2077   -1.4153    0.0000 C   0  0  0  0  0  0  0  0  0 16  0  0
   -3.5377   -3.4056    0.0000 C   0  0  0  0  0  0  0  0  0 13  0  0
   -0.9791   -2.9544    0.0000 C   0  0  0  0  0  0  0  0  0 14  0  0
   -6.3567   -2.3795    0.0000 C   0  0  0  0  0  0  0  0  0 15  0  0
   -6.1719   -0.2663    0.0000 H   0  0  0  0  0  0  0  0  0  0  0  0
   -4.6121   -2.3324    0.0000 H   0  0  0  0  0  0  0  0  0  0  0  0
   -3.2772   -4.8828    0.0000 C   0  0  0  0  0  0  0  0  0  9  0  0
   -4.6252   -3.2913    0.0000 H   0  0  0  0  0  0  0  0  0  0  0  0
   -0.7186   -4.4316    0.0000 C   0  0  0  0  0  0  0  0  0 10  0  0
    0.1700   -1.9902    0.0000 H   0  0  0  0  0  0  0  0  0  0  0  0
   -7.5058   -3.3437    0.0000 C   0  0  0  0  0  0  0  0  0  4  0  0
   -7.3209   -1.2304    0.0000 H   0  0  0  0  0  0  0  0  0  0  0  0
   -5.5398   -3.6375    0.0000 H   0  0  0  0  0  0  0  0  0  0  0  0
   -1.8676   -5.3958    0.0000 C   0  0  0  0  0  0  0  0  0  6  0  0
   -4.4263   -5.8470    0.0000 H   0  0  0  0  0  0  0  0  0  0  0  0
    0.6910   -4.9447    0.0000 H   0  0  0  0  0  0  0  0  0  0  0  0
   -8.6549   -4.3079    0.0000 H   0  0  0  0  0  0  0  0  0  0  0  0
   -8.4700   -2.1946    0.0000 H   0  0  0  0  0  0  0  0  0  0  0  0
   -6.5416   -4.4928    0.0000 H   0  0  0  0  0  0  0  0  0  0  0  0
   -1.6072   -6.8730    0.0000 H   0  0  0  0  0  0  0  0  0  0  0  0
   -0.7186    4.4316    0.0000 H   0  0  0  0  0  0  0  0  0  0  0  0
  2  1  1  0
  1  3  1  0
  4  2  1  0
  2  5  1  0
  2  6  1  0
  3  7  1  0
  3  8  1  0
  3  9  1  0
 10  4  1  0
  4 11  1  0
  4 12  1  0
  7 10  1  0
  7 13  1  0
  7 14  1  0
 15 10  1  0
 10 16  1  0
 17 15  1  0
 15 18  1  0
 19 17  2  0
 17 20  1  0
 18 21  2  0
 22 18  1  0
 20 23  1  0
 20 24  1  0
 20 25  1  0
 21 26  1  0
 21 27  1  0
 28 22  2  0
 22 29  1  0
 23 30  1  0
 23 31  1  0
 23 32  1  0
 26 33  2  0
 26 34  1  0
 33 28  1  0
 28 35  1  0
 30 36  1  0
 30 37  1  0
 30 38  1  0
 33 39  1  0
  1 40  1  0
M  END
>  <SMILES>  (1) 
CCCC(=O)N(c1ccccc1)C1CCNCC1

>  <Molecular Weight>  (1) 
246.4

>  <Substrate_ID>  (1) 
MOL0010

>  <Substrate>  (1) 


>  <Substrate_SMILES>  (1) 
CCCC(=O)N(c1ccccc1)C1CCN(CCc2ccccc2)CC1

>  <Reaction>  (1) 
N-dealkylation_(tertiaryN-CH2-alkyl)

>  <Score>  (1) 
0.4903

>  <Reaction_Score>  (1) 
0.4977

>  <Bond_Score>  (1) 
0.483

>  <Rank>  (1) 
1

>  <Subtype>  (1) 
REACTION

>  <Subtype_Scores>  (1) 
[REACTION] SOM_score: 0.4830, Reaction_score: 0.4977, Score: 0.4903


$$$$

     RDKit          2D

 19 19  0  0  0  0  0  0  0  0999 V2000
    6.0000    0.0000    0.0000 O   0  0  0  0  0  0  0  0  0 27  0  0
    4.5000    0.0000    0.0000 C   0  0  0  0  0  0  0  0  0 20  0  0
    3.0000    0.0000    0.0000 C   0  0  0  0  0  0  0  0  0 17  0  0
    4.5000    1.5000    0.0000 H   0  0  0  0  0  0  0  0  0  0  0  0
    4.5000   -1.5000    0.0000 H   0  0  0  0  0  0  0  0  0  0  0  0
    1.5000    0.0000    0.0000 C   0  0  0  0  0  0  0  0  0 24  0  0
    3.0000   -1.5000    0.0000 H   0  0  0  0  0  0  0  0  0  0  0  0
    3.0000    1.5000    0.0000 H   0  0  0  0  0  0  0  0  0  0  0  0
    0.7500   -1.2990    0.0000 C   0  0  0  0  0  0  0  0  0 11  0  0
    0.7500    1.2990    0.0000 C   0  0  0  0  0  0  0  0  0 12  0  0
   -0.7500   -1.2990    0.0000 C   0  0  0  0  0  0  0  0  0  7  0  0
    1.5000   -2.5981    0.0000 H   0  0  0  0  0  0  0  0  0  0  0  0
   -0.7500    1.2990    0.0000 C   0  0  0  0  0  0  0  0  0  8  0  0
    1.5000    2.5981    0.0000 H   0  0  0  0  0  0  0  0  0  0  0  0
   -1.5000    0.0000    0.0000 C   0  0  0  0  0  0  0  0  0  5  0  0
   -1.5000   -2.5981    0.0000 H   0  0  0  0  0  0  0  0  0  0  0  0
   -1.5000    2.5981    0.0000 H   0  0  0  0  0  0  0  0  0  0  0  0
   -3.0000    0.0000    0.0000 H   0  0  0  0  0  0  0  0  0  0  0  0
    6.7500   -1.2990    0.0000 H   0  0  0  0  0  0  0  0  0  0  0  0
  1  2  1  0
  2  3  1  0
  2  4  1  0
  2  5  1  0
  3  6  1  0
  3  7  1  0
  3  8  1  0
  6  9  2  0
 10  6  1  0
  9 11  1  0
  9 12  1  0
 13 10  2  0
 10 14  1  0
 11 15  2  0
 11 16  1  0
 15 13  1  0
 13 17  1  0
 15 18  1  0
  1 19  1  0
M  END
>  <SMILES>  (2) 
OCCc1ccccc1

>  <Molecular Weight>  (2) 
122.2

>  <Substrate_ID>  (2) 
MOL0010

>  <Substrate>  (2) 


>  <Substrate_SMILES>  (2) 
CCCC(=O)N(c1ccccc1)C1CCN(CCc2ccccc2)CC1

>  <Reaction>  (2) 
N-dealkylation_(tertiaryN-CH2-alkyl)

>  <Score>  (2) 
0.4903

>  <Reaction_Score>  (2) 
0.4977

>  <Bond_Score>  (2) 
0.483

>  <Rank>  (2) 
1

>  <Subtype>  (2) 
REACTION

>  <Subtype_Scores>  (2) 
[REACTION] SOM_score: 0.4830, Reaction_score: 0.4977, Score: 0.4903


$$$$

     RDKit          2D

 17 17  0  0  0  0  0  0  0  0999 V2000
    4.5000    0.0000    0.0000 C   0  0  0  0  0  0  0  0  0 20  0  0
    5.2500    1.2990    0.0000 O   0  0  0  0  0  0  0  0  0 27  0  0
    3.0000    0.0000    0.0000 C   0  0  0  0  0  0  0  0  0 17  0  0
    5.2500   -1.2990    0.0000 H   0  0  0  0  0  0  0  0  0  0  0  0
    1.5000    0.0000    0.0000 C   0  0  0  0  0  0  0  0  0 24  0  0
    3.0000    1.5000    0.0000 H   0  0  0  0  0  0  0  0  0  0  0  0
    3.0000   -1.5000    0.0000 H   0  0  0  0  0  0  0  0  0  0  0  0
    0.7500   -1.2990    0.0000 C   0  0  0  0  0  0  0  0  0 11  0  0
    0.7500    1.2990    0.0000 C   0  0  0  0  0  0  0  0  0 12  0  0
   -0.7500   -1.2990    0.0000 C   0  0  0  0  0  0  0  0  0  7  0  0
    1.5000   -2.5981    0.0000 H   0  0  0  0  0  0  0  0  0  0  0  0
   -0.7500    1.2990    0.0000 C   0  0  0  0  0  0  0  0  0  8  0  0
    1.5000    2.5981    0.0000 H   0  0  0  0  0  0  0  0  0  0  0  0
   -1.5000    0.0000    0.0000 C   0  0  0  0  0  0  0  0  0  5  0  0
   -1.5000   -2.5981    0.0000 H   0  0  0  0  0  0  0  0  0  0  0  0
   -1.5000    2.5981    0.0000 H   0  0  0  0  0  0  0  0  0  0  0  0
   -3.0000    0.0000    0.0000 H   0  0  0  0  0  0  0  0  0  0  0  0
  1  2  2  0
  1  3  1  0
  1  4  1  0
  3  5  1  0
  3  6  1  0
  3  7  1  0
  5  8  2  0
  9  5  1  0
  8 10  1  0
  8 11  1  0
 12  9  2  0
  9 13  1  0
 10 14  2  0
 10 15  1  0
 14 12  1  0
 12 16  1  0
 14 17  1  0
M  END
>  <SMILES>  (3) 
O=CCc1ccccc1

>  <Molecular Weight>  (3) 
120.2

>  <Substrate_ID>  (3) 
MOL0010

>  <Substrate>  (3) 


>  <Substrate_SMILES>  (3) 
CCCC(=O)N(c1ccccc1)C1CCN(CCc2ccccc2)CC1

>  <Reaction>  (3) 
N-dealkylation_(hetero_ring)

>  <Score>  (3) 
0.4903

>  <Reaction_Score>  (3) 
0.4977

>  <Bond_Score>  (3) 
0.483

>  <Rank>  (3) 
1

>  <Subtype>  (3) 
REACTION

>  <Subtype_Scores>  (3) 
[REACTION] SOM_score: 0.4830, Reaction_score: 0.4977, Score: 0.4903


$$$$
