
     RDKit          2D

 37 38  0  0  0  0  0  0  0  0999 V2000
    1.0365   -5.9990    0.0000 C   0  0  0  0  0  0  0  0  0  9  0  0
    2.5037   -6.3109    0.0000 C   0  0  0  0  0  0  0  0  0 10  0  0
    3.8740   -6.9210    0.0000 O   0  0  0  0  0  0  0  0  0 19  0  0
    3.2537   -5.0118    0.0000 C   0  0  0  0  0  0  0  0  0 13  0  0
    0.8797   -4.5072    0.0000 C   0  0  0  0  0  0  0  0  0 11  0  0
    0.8797   -7.4908    0.0000 H   0  0  0  0  0  0  0  0  0  0  0  0
   -0.4635   -5.9990    0.0000 H   0  0  0  0  0  0  0  0  0  0  0  0
    2.2500   -3.8971    0.0000 C   0  0  0  0  0  0  0  0  0 17  0  0
   -0.5875   -4.8191    0.0000 H   0  0  0  0  0  0  0  0  0  0  0  0
    0.5428   -3.7848    0.0000 H   0  0  0  0  0  0  0  0  0  0  0  0
    1.5000   -2.5981    0.0000 C   0  0  0  0  0  0  0  0  0 12  0  0
    3.4635   -3.0154    0.0000 H   0  0  0  0  0  0  0  0  0  0  0  0
    0.7500   -1.2990    0.0000 C   0  0  0  0  0  0  0  0  0 15  0  0
    0.7662   -2.9095    0.0000 H   0  0  0  0  0  0  0  0  0  0  0  0
    2.7990   -1.8481    0.0000 H   0  0  0  0  0  0  0  0  0  0  0  0
    1.5000    0.0000    0.0000 C   0  0  0  0  0  0  0  0  0  5  0  0
   -0.7500   -1.2990    0.0000 C   0  0  0  0  0  0  0  0  0  6  0  0
    0.7500    1.2990    0.0000 C   0  0  0  0  0  0  0  0  0  7  0  0
    3.0000    0.0000    0.0000 H   0  0  0  0  0  0  0  0  0  0  0  0
   -1.5000    0.0000    0.0000 C   0  0  0  0  0  0  0  0  0  8  0  0
   -1.5000   -2.5981    0.0000 H   0  0  0  0  0  0  0  0  0  0  0  0
   -0.7500    1.2990    0.0000 C   0  0  0  0  0  0  0  0  0 16  0  0
    1.5000    2.5981    0.0000 H   0  0  0  0  0  0  0  0  0  0  0  0
   -3.0000    0.0000    0.0000 H   0  0  0  0  0  0  0  0  0  0  0  0
   -1.5000    2.5981    0.0000 C   0  0  0  0  0  0  0  0  0 18  0  0
   -0.2010    3.3481    0.0000 C   0  0  0  0  0  0  0  0  0  4  0  0
   -2.2500    3.8971    0.0000 C   0  0  0  0  0  0  0  0  0 14  0  0
   -2.7990    1.8481    0.0000 H   0  0  0  0  0  0  0  0  0  0  0  0
    1.0981    4.0981    0.0000 H   0  0  0  0  0  0  0  0  0  0  0  0
   -0.6143    4.7900    0.0000 H   0  0  0  0  0  0  0  0  0  0  0  0
    0.8411    2.2691    0.0000 H   0  0  0  0  0  0  0  0  0  0  0  0
   -3.7500    3.8971    0.0000 O   0  0  0  0  0  0  0  0  0  2  0  0
   -1.5000    5.1962    0.0000 O   0  0  0  0  0  0  0  0  0  3  0  0
   -2.2500    6.4952    0.0000 H   0  0  0  0  0  0  0  0  0  0  0  0
    2.0402   -7.7375    0.0000 H   0  0  0  0  0  0  0  0  0  0  0  0
    4.7455   -4.8550    0.0000 O   0  0  0  0  0  0  0  0  0  1  0  0
    4.0308   -8.4128    0.0000 H   0  0  0  0  0  0  0  0  0  0  0  0
  1  2  1  0
  2  3  1  0
  2  4  1  0
  1  5  1  0
  1  6  1  0
  1  7  1  0
  5  8  1  0
  5  9  1  0
  5 10  1  0
  8 11  1  0
  8  4  1  0
  8 12  1  1
 11 13  1  0
 11 14  1  0
 11 15  1  0
 13 16  2  0
 17 13  1  0
 16 18  1  0
 16 19  1  0
 20 17  2  0
 17 21  1  0
 18 22  2  0
 18 23  1  0
 22 20  1  0
 20 24  1  0
 22 25  1  0
 25 26  1  0
 25 27  1  0
 25 28  1  6
 26 29  1  0
 26 30  1  0
 26 31  1  0
 27 32  2  0
 27 33  1  0
 33 34  1  0
  2 35  1  0
 36  4  2  0
  3 37  1  0
M  END
>  <SMILES>  (1) 
CC(C(=O)O)c1ccc(CC2CCC(O)C2=O)cc1

>  <Molecular Weight>  (1) 
262.3

>  <Substrate_ID>  (1) 
MOL0061

>  <Substrate>  (1) 


>  <Substrate_SMILES>  (1) 
CC(C(=O)O)c1ccc(CC2CCCC2=O)cc1

>  <Reaction>  (1) 
aliphatic_hydroxylation_(sec_carbon_next_to_SP2,in_a_ring),aliphatic hydroxylation

>  <Score>  (1) 
0.4524

>  <Reaction_Score>  (1) 
0.4755

>  <Bond_Score>  (1) 
0.4304

>  <Rank>  (1) 
1

>  <Subtype>  (1) 
REACTION

>  <Subtype_Scores>  (1) 
[REACTION] SOM_score: 0.4304, Reaction_score: 0.4755, Score: 0.4524


$$$$
