
     RDKit          2D

 61 63  0  0  0  0  0  0  0  0999 V2000
    1.5000   -0.0000    0.0000 C   0  0  0  0  0  0  0  0  0 28  0  0
    3.0000   -0.0000    0.0000 O   0  0  0  0  0  0  0  0  0  3  0  0
    0.7500   -1.2990    0.0000 C   0  0  0  0  0  0  0  0  0 16  0  0
    0.7500    1.2990    0.0000 C   0  0  0  0  0  0  0  0  0 29  0  0
   -0.7500   -1.2990    0.0000 C   0  0  0  0  0  0  0  0  0 12  0  0
    1.5000   -2.5981    0.0000 H   0  0  0  0  0  0  0  0  0  0  0  0
    1.5000    2.5981    0.0000 O   0  0  0  0  0  0  0  0  0  4  0  0
   -0.7500    1.2990    0.0000 C   0  0  0  0  0  0  0  0  0 17  0  0
   -1.5000   -0.0000    0.0000 C   0  0  0  0  0  0  0  0  0 13  0  0
   -1.5000   -2.5981    0.0000 H   0  0  0  0  0  0  0  0  0  0  0  0
    0.7500    3.8971    0.0000 C   0  0  0  0  0  0  0  0  0 18  0  0
   -1.5000    2.5981    0.0000 H   0  0  0  0  0  0  0  0  0  0  0  0
   -3.0000    0.0000    0.0000 H   0  0  0  0  0  0  0  0  0  0  0  0
    0.0000    5.1962    0.0000 C   0  0  0  0  0  0  0  0  0 31  0  0
   -0.5490    3.1471    0.0000 H   0  0  0  0  0  0  0  0  0  0  0  0
    2.1308    4.4832    0.0000 H   0  0  0  0  0  0  0  0  0  0  0  0
   -0.7500    6.4952    0.0000 C   0  0  0  0  0  0  0  0  0 24  0  0
    1.2990    5.9462    0.0000 O   0  0  0  0  0  0  0  0  0  2  0  0
   -1.2990    4.4462    0.0000 H   0  0  0  0  0  0  0  0  0  0  0  0
   -1.5000    7.7942    0.0000 N   0  0  0  0  0  0  0  0  0  7  0  0
   -1.9479    5.5924    0.0000 H   0  0  0  0  0  0  0  0  0  0  0  0
    0.6308    7.0813    0.0000 H   0  0  0  0  0  0  0  0  0  0  0  0
    2.6798    5.3601    0.0000 H   0  0  0  0  0  0  0  0  0  0  0  0
   -0.7500    9.0933    0.0000 C   0  0  0  0  0  0  0  0  0 21  0  0
   -3.0000    7.7942    0.0000 C   0  0  0  0  0  0  0  0  0 22  0  0
   -1.5000   10.3923    0.0000 C   0  0  0  0  0  0  0  0  0 19  0  0
    0.3991   10.0574    0.0000 H   0  0  0  0  0  0  0  0  0  0  0  0
    0.5080    8.2763    0.0000 H   0  0  0  0  0  0  0  0  0  0  0  0
   -3.7500    9.0933    0.0000 C   0  0  0  0  0  0  0  0  0 20  0  0
   -2.9215    6.2963    0.0000 H   0  0  0  0  0  0  0  0  0  0  0  0
   -4.4095    7.2812    0.0000 H   0  0  0  0  0  0  0  0  0  0  0  0
   -3.0000   10.3923    0.0000 N   0  0  0  0  0  0  0  0  0  6  0  0
   -1.5785   11.8903    0.0000 H   0  0  0  0  0  0  0  0  0  0  0  0
   -0.0905   10.9053    0.0000 H   0  0  0  0  0  0  0  0  0  0  0  0
   -4.8991    8.1291    0.0000 H   0  0  0  0  0  0  0  0  0  0  0  0
   -5.0080    9.9102    0.0000 H   0  0  0  0  0  0  0  0  0  0  0  0
   -3.7500   11.6913    0.0000 C   0  0  0  0  0  0  0  0  0 23  0  0
   -4.5000   12.9904    0.0000 C   0  0  0  0  0  0  0  0  0 25  0  0
   -5.1308   11.1053    0.0000 H   0  0  0  0  0  0  0  0  0  0  0  0
   -2.5521   12.5941    0.0000 H   0  0  0  0  0  0  0  0  0  0  0  0
   -4.1539   13.8057    0.0000 O   0  0  0  0  0  0  0  0  0  1  0  0
   -6.0000   12.9904    0.0000 N   0  0  0  0  0  0  0  0  0  5  0  0
   -6.7500   14.2894    0.0000 C   0  0  0  0  0  0  0  0  0 30  0  0
   -6.7500   11.6913    0.0000 H   0  0  0  0  0  0  0  0  0  0  0  0
   -6.0000   15.5885    0.0000 C   0  0  0  0  0  0  0  0  0 26  0  0
   -8.2500   14.2894    0.0000 C   0  0  0  0  0  0  0  0  0 27  0  0
   -4.5000   15.5885    0.0000 C   0  0  0  0  0  0  0  0  0  9  0  0
   -6.7500   16.8875    0.0000 C   0  0  0  0  0  0  0  0  0 14  0  0
   -9.0000   15.5885    0.0000 C   0  0  0  0  0  0  0  0  0 15  0  0
   -9.0000   12.9904    0.0000 C   0  0  0  0  0  0  0  0  0 10  0  0
   -3.0000   15.5885    0.0000 H   0  0  0  0  0  0  0  0  0  0  0  0
   -4.5000   17.0885    0.0000 H   0  0  0  0  0  0  0  0  0  0  0  0
   -4.6080   14.7093    0.0000 H   0  0  0  0  0  0  0  0  0  0  0  0
   -8.2500   16.8875    0.0000 C   0  0  0  0  0  0  0  0  0 11  0  0
   -6.0000   18.1865    0.0000 H   0  0  0  0  0  0  0  0  0  0  0  0
  -10.5000   15.5885    0.0000 H   0  0  0  0  0  0  0  0  0  0  0  0
   -9.7500   11.6913    0.0000 H   0  0  0  0  0  0  0  0  0  0  0  0
  -10.2990   13.7404    0.0000 H   0  0  0  0  0  0  0  0  0  0  0  0
   -7.7010   12.2404    0.0000 H   0  0  0  0  0  0  0  0  0  0  0  0
   -9.0000   18.1865    0.0000 H   0  0  0  0  0  0  0  0  0  0  0  0
    3.7500   -1.2990    0.0000 H   0  0  0  0  0  0  0  0  0  0  0  0
  1  2  1  0
  3  1  2  0
  1  4  1  0
  5  3  1  0
  3  6  1  0
  7  4  1  0
  4  8  2  0
  9  5  2  0
  5 10  1  0
 11  7  1  0
  8  9  1  0
  8 12  1  0
  9 13  1  0
 14 11  1  0
 11 15  1  0
 11 16  1  0
 17 14  1  0
 14 18  1  0
 14 19  1  6
 20 17  1  0
 17 21  1  0
 17 22  1  0
 18 23  1  0
 24 20  1  0
 20 25  1  0
 26 24  1  0
 24 27  1  0
 24 28  1  0
 25 29  1  0
 25 30  1  0
 25 31  1  0
 32 26  1  0
 26 33  1  0
 26 34  1  0
 29 32  1  0
 29 35  1  0
 29 36  1  0
 37 32  1  0
 38 37  1  0
 37 39  1  0
 37 40  1  0
 41 38  2  0
 38 42  1  0
 42 43  1  0
 42 44  1  0
 43 45  2  0
 46 43  1  0
 45 47  1  0
 45 48  1  0
 49 46  2  0
 46 50  1  0
 47 51  1  0
 47 52  1  0
 47 53  1  0
 48 54  2  0
 48 55  1  0
 54 49  1  0
 49 56  1  0
 50 57  1  0
 50 58  1  0
 50 59  1  0
 54 60  1  0
  2 61  1  0
M  END
>  <SMILES>  (1) 
Cc1cccc(C)c1NC(=O)CN1CCN(CC(O)COc2ccccc2O)CC1

>  <Molecular Weight>  (1) 
413.5

>  <Substrate_ID>  (1) 
MOL0009

>  <Substrate>  (1) 


>  <Substrate_SMILES>  (1) 
COc1ccccc1OCC(O)CN1CCN(CC(=O)Nc2c(C)cccc2C)CC1

>  <Reaction>  (1) 
O-demethylation

>  <Score>  (1) 
0.4941

>  <Reaction_Score>  (1) 
0.4973

>  <Bond_Score>  (1) 
0.491

>  <Rank>  (1) 
1

>  <Subtype>  (1) 
REACTION

>  <Subtype_Scores>  (1) 
[REACTION] SOM_score: 0.4910, Reaction_score: 0.4973, Score: 0.4941


$$$$
