
     RDKit          2D

 77 80  0  0  0  0  0  0  0  0999 V2000
    2.6491   -0.9642    0.0000 N   0  0  0  0  0  0  0  0  0 11  0  0
    1.5000    0.0000    0.0000 C   0  0  0  0  0  0  0  0  0 37  0  0
    4.0586   -0.4512    0.0000 C   0  0  0  0  0  0  0  0  0 15  0  0
    0.7500   -1.2990    0.0000 C   0  0  0  0  0  0  0  0  0 29  0  0
    0.7500    1.2990    0.0000 C   0  0  0  0  0  0  0  0  0 38  0  0
    2.3254    0.5360    0.0000 H   0  0  0  0  0  0  0  0  0  0  0  0
   -0.7500   -1.2990    0.0000 C   0  0  0  0  0  0  0  0  0 27  0  0
    1.5000   -2.5981    0.0000 O   0  0  0  0  0  0  0  0  0  4  0  0
    1.5000    2.5981    0.0000 C   0  0  0  0  0  0  0  0  0 22  0  0
   -0.7500    1.2990    0.0000 C   0  0  0  0  0  0  0  0  0 40  0  0
    1.7342    1.2990    0.0000 H   0  0  0  0  0  0  0  0  0  0  0  0
   -1.5000   -2.5981    0.0000 C   0  0  0  0  0  0  0  0  0 24  0  0
   -1.5000    0.0000    0.0000 C   0  0  0  0  0  0  0  0  0 26  0  0
    2.9888   -2.7809    0.0000 H   0  0  0  0  0  0  0  0  0  0  0  0
    0.7500    3.8971    0.0000 C   0  0  0  0  0  0  0  0  0 36  0  0
    2.7134    3.1898    0.0000 H   0  0  0  0  0  0  0  0  0  0  0  0
    2.8482    1.9406    0.0000 H   0  0  0  0  0  0  0  0  0  0  0  0
   -1.5000    2.5981    0.0000 C   0  0  0  0  0  0  0  0  0 30  0  0
   -2.2500    1.2990    0.0000 O   0  0  0  0  0  0  0  0  0  7  0  0
   -3.0000   -2.5981    0.0000 O   0  0  0  0  0  0  0  0  0  1  0  0
   -0.7500   -3.8971    0.0000 N   0  0  0  0  0  0  0  0  0  8  0  0
   -3.0000    0.0000    0.0000 O   0  0  0  0  0  0  0  0  0  3  0  0
    1.5000    5.1962    0.0000 C   0  0  0  0  0  0  0  0  0 21  0  0
   -0.7500    3.8971    0.0000 C   0  0  0  0  0  0  0  0  0 28  0  0
    2.1000    3.8971    0.0000 H   0  0  0  0  0  0  0  0  0  0  0  0
   -3.0000    2.5981    0.0000 O   0  0  0  0  0  0  0  0  0  5  0  0
   -2.8038    1.8724    0.0000 H   0  0  0  0  0  0  0  0  0  0  0  0
   -1.5000   -5.1962    0.0000 H   0  0  0  0  0  0  0  0  0  0  0  0
    0.7500   -3.8971    0.0000 H   0  0  0  0  0  0  0  0  0  0  0  0
    0.7500    6.4952    0.0000 C   0  0  0  0  0  0  0  0  0 34  0  0
    2.5230    6.2932    0.0000 H   0  0  0  0  0  0  0  0  0  0  0  0
    2.8482    4.5387    0.0000 H   0  0  0  0  0  0  0  0  0  0  0  0
   -1.5000    5.1962    0.0000 C   0  0  0  0  0  0  0  0  0 25  0  0
   -3.7500    3.8971    0.0000 H   0  0  0  0  0  0  0  0  0  0  0  0
    1.5000    7.7942    0.0000 C   0  0  0  0  0  0  0  0  0 32  0  0
   -0.7500    6.4952    0.0000 C   0  0  0  0  0  0  0  0  0 35  0  0
   -3.0000    5.1962    0.0000 O   0  0  0  0  0  0  0  0  0  2  0  0
    3.0000    7.7942    0.0000 N   0  0  0  0  0  0  0  0  0 10  0  0
    0.7500    9.0933    0.0000 C   0  0  0  0  0  0  0  0  0 19  0  0
   -1.5000    7.7942    0.0000 C   0  0  0  0  0  0  0  0  0 33  0  0
    3.7500    9.0933    0.0000 C   0  0  0  0  0  0  0  0  0 12  0  0
    3.7500    6.4952    0.0000 C   0  0  0  0  0  0  0  0  0 13  0  0
   -0.7500    9.0933    0.0000 C   0  0  0  0  0  0  0  0  0 31  0  0
    1.5000   10.3923    0.0000 H   0  0  0  0  0  0  0  0  0  0  0  0
   -3.0000    7.7942    0.0000 O   0  0  0  0  0  0  0  0  0  6  0  0
    5.0490    8.3433    0.0000 H   0  0  0  0  0  0  0  0  0  0  0  0
    2.4510    9.8433    0.0000 H   0  0  0  0  0  0  0  0  0  0  0  0
    4.5000   10.3923    0.0000 H   0  0  0  0  0  0  0  0  0  0  0  0
    5.0490    7.2452    0.0000 H   0  0  0  0  0  0  0  0  0  0  0  0
    2.3692    5.9091    0.0000 H   0  0  0  0  0  0  0  0  0  0  0  0
    4.5000    5.1962    0.0000 H   0  0  0  0  0  0  0  0  0  0  0  0
   -1.5000   10.3923    0.0000 C   0  0  0  0  0  0  0  0  0 20  0  0
   -3.7500    9.0933    0.0000 H   0  0  0  0  0  0  0  0  0  0  0  0
   -2.2500   11.6913    0.0000 N   0  0  0  0  0  0  0  0  0  9  0  0
   -0.2010   11.1423    0.0000 H   0  0  0  0  0  0  0  0  0  0  0  0
   -2.7990    9.6423    0.0000 H   0  0  0  0  0  0  0  0  0  0  0  0
   -3.7500   11.6913    0.0000 C   0  0  0  0  0  0  0  0  0 23  0  0
   -1.5000   12.9904    0.0000 H   0  0  0  0  0  0  0  0  0  0  0  0
   -5.2500   11.6913    0.0000 C   0  0  0  0  0  0  0  0  0 39  0  0
   -3.5672   13.1802    0.0000 H   0  0  0  0  0  0  0  0  0  0  0  0
   -3.5672   10.2025    0.0000 H   0  0  0  0  0  0  0  0  0  0  0  0
   -5.2500   13.1913    0.0000 C   0  0  0  0  0  0  0  0  0 16  0  0
   -5.2500   10.1913    0.0000 C   0  0  0  0  0  0  0  0  0 17  0  0
   -6.7500   11.6913    0.0000 C   0  0  0  0  0  0  0  0  0 18  0  0
   -6.7388   13.3742    0.0000 H   0  0  0  0  0  0  0  0  0  0  0  0
   -3.7612   13.3742    0.0000 H   0  0  0  0  0  0  0  0  0  0  0  0
   -5.2500   14.6913    0.0000 H   0  0  0  0  0  0  0  0  0  0  0  0
   -6.7388   10.0085    0.0000 H   0  0  0  0  0  0  0  0  0  0  0  0
   -3.7612   10.0085    0.0000 H   0  0  0  0  0  0  0  0  0  0  0  0
   -5.2500    8.6913    0.0000 H   0  0  0  0  0  0  0  0  0  0  0  0
   -6.9328   10.2025    0.0000 H   0  0  0  0  0  0  0  0  0  0  0  0
   -6.9328   13.1802    0.0000 H   0  0  0  0  0  0  0  0  0  0  0  0
   -8.2500   11.6913    0.0000 H   0  0  0  0  0  0  0  0  0  0  0  0
    4.5716   -1.8607    0.0000 H   0  0  0  0  0  0  0  0  0  0  0  0
    3.7212    1.0104    0.0000 H   0  0  0  0  0  0  0  0  0  0  0  0
    5.4681    0.0619    0.0000 H   0  0  0  0  0  0  0  0  0  0  0  0
    2.9354   -2.4366    0.0000 H   0  0  0  0  0  0  0  0  0  0  0  0
  1  2  1  0
  1  3  1  0
  4  2  1  0
  2  5  1  0
  2  6  1  1
  7  4  2  0
  4  8  1  0
  5  9  1  0
 10  5  1  0
  5 11  1  6
 12  7  1  0
 13  7  1  0
  8 14  1  0
  9 15  1  0
  9 16  1  0
  9 17  1  0
 18 10  1  0
 10 19  1  6
 10 13  1  0
 20 12  2  0
 12 21  1  0
 13 22  2  0
 15 23  1  0
 24 15  1  0
 15 25  1  6
 24 18  2  0
 18 26  1  0
 19 27  1  0
 21 28  1  0
 21 29  1  0
 23 30  1  0
 23 31  1  0
 23 32  1  0
 33 24  1  0
 26 34  1  0
 30 35  2  0
 36 30  1  0
 36 33  1  0
 33 37  2  0
 35 38  1  0
 35 39  1  0
 40 36  2  0
 38 41  1  0
 38 42  1  0
 39 43  2  0
 39 44  1  0
 43 40  1  0
 40 45  1  0
 41 46  1  0
 41 47  1  0
 41 48  1  0
 42 49  1  0
 42 50  1  0
 42 51  1  0
 43 52  1  0
 45 53  1  0
 52 54  1  0
 52 55  1  0
 52 56  1  0
 54 57  1  0
 54 58  1  0
 57 59  1  0
 57 60  1  0
 57 61  1  0
 59 62  1  0
 59 63  1  0
 59 64  1  0
 62 65  1  0
 62 66  1  0
 62 67  1  0
 63 68  1  0
 63 69  1  0
 63 70  1  0
 64 71  1  0
 64 72  1  0
 64 73  1  0
  3 74  1  0
  3 75  1  0
  3 76  1  0
  1 77  1  0
M  END
>  <SMILES>  (1) 
CNC1C(O)=C(C(N)=O)C(=O)C2(O)C(O)=C3C(=O)c4c(O)c(CNCC(C)(C)C)cc(N(C)C)c4CC3CC12

>  <Molecular Weight>  (1) 
542.6

>  <Substrate_ID>  (1) 
MOL0002

>  <Substrate>  (1) 


>  <Substrate_SMILES>  (1) 
CN(C)c1cc(CNCC(C)(C)C)c(O)c2c1CC1CC3C(N(C)C)C(O)=C(C(N)=O)C(=O)C3(O)C(O)=C1C2=O

>  <Reaction>  (1) 
N-demethylation_(tertiary_amine)

>  <Score>  (1) 
0.3543

>  <Reaction_Score>  (1) 
0.3485

>  <Bond_Score>  (1) 
0.3602

>  <Rank>  (1) 
1

>  <Subtype>  (1) 
REACTION

>  <Subtype_Scores>  (1) 
[REACTION] SOM_score: 0.3602, Reaction_score: 0.3485, Score: 0.3543


$$$$
