
     RDKit          2D

 69 72  0  0  0  0  0  0  0  0999 V2000
    7.2669    1.3463    0.0000 C   0  0  0  0  0  0  0  0  0 37  0  0
    8.2706    0.2316    0.0000 N   0  0  0  0  0  0  0  0  0 12  0  0
    7.8071   -1.1950    0.0000 C   0  0  0  0  0  0  0  0  0 29  0  0
    5.7997    1.0344    0.0000 N   0  0  0  0  0  0  0  0  0  8  0  0
    7.7304    2.7729    0.0000 C   0  0  0  0  0  0  0  0  0 35  0  0
    4.7960    2.1491    0.0000 C   0  0  0  0  0  0  0  0  0 36  0  0
    9.1976    3.0847    0.0000 N   0  0  0  0  0  0  0  0  0 10  0  0
    6.7267    3.8876    0.0000 C   0  0  0  0  0  0  0  0  0 24  0  0
    3.3287    1.8373    0.0000 O   0  0  0  0  0  0  0  0  0  5  0  0
    5.2595    3.5757    0.0000 C   0  0  0  0  0  0  0  0  0 34  0  0
    9.6612    4.5113    0.0000 C   0  0  0  0  0  0  0  0  0 31  0  0
   10.2013    1.9700    0.0000 H   0  0  0  0  0  0  0  0  0  0  0  0
    7.1902    5.3142    0.0000 H   0  0  0  0  0  0  0  0  0  0  0  0
    2.8652    0.4107    0.0000 C   0  0  0  0  0  0  0  0  0 30  0  0
    4.2558    4.6904    0.0000 N   0  0  0  0  0  0  0  0  0  9  0  0
    8.6575    5.6260    0.0000 O   0  0  0  0  0  0  0  0  0  4  0  0
   11.1284    4.8232    0.0000 C   0  0  0  0  0  0  0  0  0 19  0  0
    2.4017   -1.0159    0.0000 C   0  0  0  0  0  0  0  0  0 41  0  0
    4.2918   -0.0528    0.0000 H   0  0  0  0  0  0  0  0  0  0  0  0
    1.4386    0.8742    0.0000 H   0  0  0  0  0  0  0  0  0  0  0  0
    2.7886    4.3786    0.0000 C   0  0  0  0  0  0  0  0  0 33  0  0
    4.7193    6.1170    0.0000 H   0  0  0  0  0  0  0  0  0  0  0  0
   11.5919    6.2498    0.0000 C   0  0  0  0  0  0  0  0  0 14  0  0
   12.1321    3.7085    0.0000 H   0  0  0  0  0  0  0  0  0  0  0  0
    1.9382   -2.4425    0.0000 F   0  0  0  0  0  0  0  0  0  1  0  0
    3.8283   -1.4794    0.0000 F   0  0  0  0  0  0  0  0  0  2  0  0
    0.9751   -0.5524    0.0000 F   0  0  0  0  0  0  0  0  0  3  0  0
    2.3250    2.9520    0.0000 N   0  0  0  0  0  0  0  0  0  6  0  0
    1.7849    5.4933    0.0000 N   0  0  0  0  0  0  0  0  0  7  0  0
   13.0591    6.5616    0.0000 H   0  0  0  0  0  0  0  0  0  0  0  0
   10.5882    7.3645    0.0000 H   0  0  0  0  0  0  0  0  0  0  0  0
    0.8578    2.6401    0.0000 C   0  0  0  0  0  0  0  0  0 22  0  0
    0.3177    5.1814    0.0000 C   0  0  0  0  0  0  0  0  0 32  0  0
   -0.1459    3.7548    0.0000 C   0  0  0  0  0  0  0  0  0 23  0  0
    0.3943    1.2135    0.0000 H   0  0  0  0  0  0  0  0  0  0  0  0
   -0.6860    6.2961    0.0000 C   0  0  0  0  0  0  0  0  0 38  0  0
   -1.6131    3.4430    0.0000 H   0  0  0  0  0  0  0  0  0  0  0  0
   -2.1778    6.1393    0.0000 C   0  0  0  0  0  0  0  0  0 27  0  0
   -0.3742    7.7634    0.0000 C   0  0  0  0  0  0  0  0  0 39  0  0
   -2.7879    7.5097    0.0000 N   0  0  0  0  0  0  0  0  0 13  0  0
   -2.9278    4.8403    0.0000 H   0  0  0  0  0  0  0  0  0  0  0  0
    0.9249    8.5134    0.0000 C   0  0  0  0  0  0  0  0  0 25  0  0
   -1.6732    8.5134    0.0000 C   0  0  0  0  0  0  0  0  0 40  0  0
   -4.2552    7.8215    0.0000 C   0  0  0  0  0  0  0  0  0 18  0  0
    0.9249   10.0134    0.0000 C   0  0  0  0  0  0  0  0  0 20  0  0
    2.2239    7.7634    0.0000 H   0  0  0  0  0  0  0  0  0  0  0  0
   -1.6732   10.0134    0.0000 C   0  0  0  0  0  0  0  0  0 26  0  0
   -5.7224    8.1334    0.0000 H   0  0  0  0  0  0  0  0  0  0  0  0
   -4.5670    6.3543    0.0000 H   0  0  0  0  0  0  0  0  0  0  0  0
   -3.9433    9.2887    0.0000 H   0  0  0  0  0  0  0  0  0  0  0  0
   -0.3742   10.7634    0.0000 C   0  0  0  0  0  0  0  0  0 21  0  0
    2.2239   10.7634    0.0000 H   0  0  0  0  0  0  0  0  0  0  0  0
   -2.9723   10.7634    0.0000 H   0  0  0  0  0  0  0  0  0  0  0  0
   -0.3742   12.2634    0.0000 H   0  0  0  0  0  0  0  0  0  0  0  0
    7.3435   -2.6216    0.0000 C   0  0  0  0  0  0  0  0  0 28  0  0
    6.3805   -0.7315    0.0000 H   0  0  0  0  0  0  0  0  0  0  0  0
    9.2336   -1.6585    0.0000 H   0  0  0  0  0  0  0  0  0  0  0  0
    6.8800   -4.0482    0.0000 N   0  0  0  0  0  0  0  0  0 11  0  0
    5.9169   -2.1581    0.0000 H   0  0  0  0  0  0  0  0  0  0  0  0
    8.7701   -3.0851    0.0000 H   0  0  0  0  0  0  0  0  0  0  0  0
    7.8837   -5.1629    0.0000 C   0  0  0  0  0  0  0  0  0 15  0  0
    5.4128   -4.3601    0.0000 C   0  0  0  0  0  0  0  0  0 16  0  0
    8.8874   -6.2776    0.0000 H   0  0  0  0  0  0  0  0  0  0  0  0
    6.7690   -6.1666    0.0000 H   0  0  0  0  0  0  0  0  0  0  0  0
    8.9984   -4.1592    0.0000 H   0  0  0  0  0  0  0  0  0  0  0  0
    3.9456   -4.6719    0.0000 H   0  0  0  0  0  0  0  0  0  0  0  0
    5.7246   -5.8273    0.0000 H   0  0  0  0  0  0  0  0  0  0  0  0
    5.1009   -2.8928    0.0000 H   0  0  0  0  0  0  0  0  0  0  0  0
    9.7378    0.5434    0.0000 H   0  0  0  0  0  0  0  0  0  0  0  0
  1  2  1  0
  2  3  1  0
  4  1  2  0
  1  5  1  0
  6  4  1  0
  5  7  1  0
  5  8  2  0
  9  6  1  0
 10  6  2  0
  7 11  1  0
  7 12  1  0
  8 10  1  0
  8 13  1  0
 14  9  1  0
 10 15  1  0
 11 16  2  0
 11 17  1  0
 18 14  1  0
 14 19  1  0
 14 20  1  0
 15 21  1  0
 15 22  1  0
 17 23  2  0
 17 24  1  0
 25 18  1  0
 18 26  1  0
 18 27  1  0
 21 28  2  0
 29 21  1  0
 23 30  1  0
 23 31  1  0
 28 32  1  0
 33 29  2  0
 32 34  2  0
 32 35  1  0
 34 33  1  0
 33 36  1  0
 34 37  1  0
 36 38  2  0
 39 36  1  0
 38 40  1  0
 38 41  1  0
 42 39  2  0
 39 43  1  0
 40 44  1  0
 40 43  1  0
 45 42  1  0
 42 46  1  0
 43 47  2  0
 44 48  1  0
 44 49  1  0
 44 50  1  0
 51 45  2  0
 45 52  1  0
 47 51  1  0
 47 53  1  0
 51 54  1  0
  3 55  1  0
  3 56  1  0
  3 57  1  0
 55 58  1  0
 55 59  1  0
 55 60  1  0
 58 61  1  0
 58 62  1  0
 61 63  1  0
 61 64  1  0
 61 65  1  0
 62 66  1  0
 62 67  1  0
 62 68  1  0
  2 69  1  0
M  END
>  <SMILES>  (1) 
C=CC(=O)Nc1cc(Nc2nccc(-c3cn(C)c4ccccc34)n2)c(OCC(F)(F)F)nc1NCCN(C)C

>  <Molecular Weight>  (1) 
554.6

>  <Substrate_ID>  (1) 
MOL0062

>  <Substrate>  (1) 


>  <Substrate_SMILES>  (1) 
C=CC(=O)Nc1cc(Nc2nccc(-c3cn(C)c4ccccc34)n2)c(OCC(F)(F)F)nc1N(C)CCN(C)C

>  <Reaction>  (1) 
N-demethylation_(R-N(CR)CH3)

>  <Score>  (1) 
0.8187

>  <Reaction_Score>  (1) 
0.7992

>  <Bond_Score>  (1) 
0.8387

>  <Rank>  (1) 
1

>  <Subtype>  (1) 
REACTION

>  <Subtype_Scores>  (1) 
[REACTION] SOM_score: 0.8387, Reaction_score: 0.7992, Score: 0.8187


$$$$

     RDKit          2D

 69 72  0  0  0  0  0  0  0  0999 V2000
    6.8800   -4.0482    0.0000 N   0  0  0  0  0  0  0  0  0 11  0  0
    7.3435   -2.6216    0.0000 C   0  0  0  0  0  0  0  0  0 28  0  0
    7.8837   -5.1629    0.0000 C   0  0  0  0  0  0  0  0  0 16  0  0
    7.8071   -1.1950    0.0000 C   0  0  0  0  0  0  0  0  0 29  0  0
    5.9169   -2.1581    0.0000 H   0  0  0  0  0  0  0  0  0  0  0  0
    8.7701   -3.0851    0.0000 H   0  0  0  0  0  0  0  0  0  0  0  0
    8.2706    0.2316    0.0000 N   0  0  0  0  0  0  0  0  0 12  0  0
    6.3805   -0.7315    0.0000 H   0  0  0  0  0  0  0  0  0  0  0  0
    9.2336   -1.6585    0.0000 H   0  0  0  0  0  0  0  0  0  0  0  0
    7.2669    1.3463    0.0000 C   0  0  0  0  0  0  0  0  0 37  0  0
    9.7378    0.5434    0.0000 C   0  0  0  0  0  0  0  0  0 17  0  0
    5.7997    1.0344    0.0000 N   0  0  0  0  0  0  0  0  0  8  0  0
    7.7304    2.7729    0.0000 C   0  0  0  0  0  0  0  0  0 35  0  0
   11.2050    0.8553    0.0000 H   0  0  0  0  0  0  0  0  0  0  0  0
   10.0497   -0.9238    0.0000 H   0  0  0  0  0  0  0  0  0  0  0  0
    9.6520    1.5238    0.0000 H   0  0  0  0  0  0  0  0  0  0  0  0
    4.7960    2.1491    0.0000 C   0  0  0  0  0  0  0  0  0 36  0  0
    9.1976    3.0847    0.0000 N   0  0  0  0  0  0  0  0  0 10  0  0
    6.7267    3.8876    0.0000 C   0  0  0  0  0  0  0  0  0 24  0  0
    3.3287    1.8373    0.0000 O   0  0  0  0  0  0  0  0  0  5  0  0
    5.2595    3.5757    0.0000 C   0  0  0  0  0  0  0  0  0 34  0  0
    9.6612    4.5113    0.0000 C   0  0  0  0  0  0  0  0  0 31  0  0
    9.9404    2.4391    0.0000 H   0  0  0  0  0  0  0  0  0  0  0  0
    7.1902    5.3142    0.0000 H   0  0  0  0  0  0  0  0  0  0  0  0
    2.8652    0.4107    0.0000 C   0  0  0  0  0  0  0  0  0 30  0  0
    4.2558    4.6904    0.0000 N   0  0  0  0  0  0  0  0  0  9  0  0
    8.6575    5.6260    0.0000 O   0  0  0  0  0  0  0  0  0  4  0  0
   11.1284    4.8232    0.0000 C   0  0  0  0  0  0  0  0  0 19  0  0
    2.4017   -1.0159    0.0000 C   0  0  0  0  0  0  0  0  0 41  0  0
    4.2918   -0.0528    0.0000 H   0  0  0  0  0  0  0  0  0  0  0  0
    1.4386    0.8742    0.0000 H   0  0  0  0  0  0  0  0  0  0  0  0
    2.7886    4.3786    0.0000 C   0  0  0  0  0  0  0  0  0 33  0  0
    4.7193    6.1170    0.0000 H   0  0  0  0  0  0  0  0  0  0  0  0
   11.5919    6.2498    0.0000 C   0  0  0  0  0  0  0  0  0 14  0  0
   12.1321    3.7085    0.0000 H   0  0  0  0  0  0  0  0  0  0  0  0
    2.1931   -2.0893    0.0000 F   0  0  0  0  0  0  0  0  0  1  0  0
    3.8283   -1.4794    0.0000 F   0  0  0  0  0  0  0  0  0  2  0  0
    1.3248   -1.2059    0.0000 F   0  0  0  0  0  0  0  0  0  3  0  0
    1.7849    5.4933    0.0000 N   0  0  0  0  0  0  0  0  0  6  0  0
    2.3250    2.9520    0.0000 N   0  0  0  0  0  0  0  0  0  7  0  0
   13.0591    6.5616    0.0000 H   0  0  0  0  0  0  0  0  0  0  0  0
   10.5882    7.3645    0.0000 H   0  0  0  0  0  0  0  0  0  0  0  0
    0.3177    5.1814    0.0000 C   0  0  0  0  0  0  0  0  0 22  0  0
    0.8578    2.6401    0.0000 C   0  0  0  0  0  0  0  0  0 32  0  0
   -0.1459    3.7548    0.0000 C   0  0  0  0  0  0  0  0  0 23  0  0
   -0.6860    6.2961    0.0000 H   0  0  0  0  0  0  0  0  0  0  0  0
    0.3943    1.2135    0.0000 C   0  0  0  0  0  0  0  0  0 38  0  0
   -1.6402    3.6241    0.0000 H   0  0  0  0  0  0  0  0  0  0  0  0
    1.2760    0.0000    0.0000 C   0  0  0  0  0  0  0  0  0 27  0  0
   -1.0323    0.7500    0.0000 C   0  0  0  0  0  0  0  0  0 39  0  0
    0.3943   -1.2135    0.0000 N   0  0  0  0  0  0  0  0  0 13  0  0
    2.1354   -0.2143    0.0000 H   0  0  0  0  0  0  0  0  0  0  0  0
   -2.3313    1.5000    0.0000 C   0  0  0  0  0  0  0  0  0 25  0  0
   -1.0323   -0.7500    0.0000 C   0  0  0  0  0  0  0  0  0 40  0  0
    0.8578   -2.6401    0.0000 C   0  0  0  0  0  0  0  0  0 18  0  0
   -3.6304    0.7500    0.0000 C   0  0  0  0  0  0  0  0  0 20  0  0
   -2.5142    2.9888    0.0000 H   0  0  0  0  0  0  0  0  0  0  0  0
   -2.3313   -1.5000    0.0000 C   0  0  0  0  0  0  0  0  0 26  0  0
    1.3213   -4.0667    0.0000 H   0  0  0  0  0  0  0  0  0  0  0  0
    1.9312   -2.4315    0.0000 H   0  0  0  0  0  0  0  0  0  0  0  0
   -0.5688   -3.1036    0.0000 H   0  0  0  0  0  0  0  0  0  0  0  0
   -3.6304   -0.7500    0.0000 C   0  0  0  0  0  0  0  0  0 21  0  0
   -4.9294    1.5000    0.0000 H   0  0  0  0  0  0  0  0  0  0  0  0
   -2.3313   -3.0000    0.0000 H   0  0  0  0  0  0  0  0  0  0  0  0
   -4.9294   -1.5000    0.0000 H   0  0  0  0  0  0  0  0  0  0  0  0
    8.8874   -6.2776    0.0000 H   0  0  0  0  0  0  0  0  0  0  0  0
    6.7690   -6.1666    0.0000 H   0  0  0  0  0  0  0  0  0  0  0  0
    8.9984   -4.1592    0.0000 H   0  0  0  0  0  0  0  0  0  0  0  0
    5.4128   -4.3601    0.0000 H   0  0  0  0  0  0  0  0  0  0  0  0
  1  2  1  0
  1  3  1  0
  4  2  1  0
  2  5  1  0
  2  6  1  0
  7  4  1  0
  4  8  1  0
  4  9  1  0
 10  7  1  0
  7 11  1  0
 12 10  2  0
 10 13  1  0
 11 14  1  0
 11 15  1  0
 11 16  1  0
 17 12  1  0
 13 18  1  0
 13 19  2  0
 20 17  1  0
 21 17  2  0
 18 22  1  0
 18 23  1  0
 19 21  1  0
 19 24  1  0
 25 20  1  0
 21 26  1  0
 22 27  2  0
 22 28  1  0
 29 25  1  0
 25 30  1  0
 25 31  1  0
 26 32  1  0
 26 33  1  0
 28 34  2  0
 28 35  1  0
 36 29  1  0
 29 37  1  0
 29 38  1  0
 32 39  2  0
 40 32  1  0
 34 41  1  0
 34 42  1  0
 39 43  1  0
 44 40  2  0
 43 45  2  0
 43 46  1  0
 45 44  1  0
 44 47  1  0
 45 48  1  0
 47 49  2  0
 50 47  1  0
 49 51  1  0
 49 52  1  0
 53 50  2  0
 50 54  1  0
 51 55  1  0
 51 54  1  0
 56 53  1  0
 53 57  1  0
 54 58  2  0
 55 59  1  0
 55 60  1  0
 55 61  1  0
 62 56  2  0
 56 63  1  0
 58 62  1  0
 58 64  1  0
 62 65  1  0
  3 66  1  0
  3 67  1  0
  3 68  1  0
  1 69  1  0
M  END
>  <SMILES>  (2) 
C=CC(=O)Nc1cc(Nc2nccc(-c3cn(C)c4ccccc34)n2)c(OCC(F)(F)F)nc1N(C)CCNC

>  <Molecular Weight>  (2) 
554.6

>  <Substrate_ID>  (2) 
MOL0062

>  <Substrate>  (2) 


>  <Substrate_SMILES>  (2) 
C=CC(=O)Nc1cc(Nc2nccc(-c3cn(C)c4ccccc34)n2)c(OCC(F)(F)F)nc1N(C)CCN(C)C

>  <Reaction>  (2) 
N-demethylation_(tertiary_amine)

>  <Score>  (2) 
0.8084

>  <Reaction_Score>  (2) 
0.7915

>  <Bond_Score>  (2) 
0.8256

>  <Rank>  (2) 
2

>  <Subtype>  (2) 
REACTION

>  <Subtype_Scores>  (2) 
[REACTION] SOM_score: 0.8256, Reaction_score: 0.7915, Score: 0.8084


$$$$

     RDKit          2D

 69 72  0  0  0  0  0  0  0  0999 V2000
    1.2760    0.0000    0.0000 N   0  0  0  0  0  0  0  0  0 13  0  0
    0.3943    1.2135    0.0000 C   0  0  0  0  0  0  0  0  0 27  0  0
    0.3943   -1.2135    0.0000 C   0  0  0  0  0  0  0  0  0 40  0  0
   -1.0323    0.7500    0.0000 C   0  0  0  0  0  0  0  0  0 38  0  0
    0.8578    2.6401    0.0000 H   0  0  0  0  0  0  0  0  0  0  0  0
    0.7062   -2.6807    0.0000 C   0  0  0  0  0  0  0  0  0 26  0  0
   -1.0323   -0.7500    0.0000 C   0  0  0  0  0  0  0  0  0 39  0  0
   -2.2458    1.6317    0.0000 C   0  0  0  0  0  0  0  0  0 32  0  0
   -0.4086   -3.6844    0.0000 C   0  0  0  0  0  0  0  0  0 21  0  0
    2.1328   -3.1443    0.0000 H   0  0  0  0  0  0  0  0  0  0  0  0
   -2.1470   -1.7537    0.0000 C   0  0  0  0  0  0  0  0  0 25  0  0
   -2.0890    3.1235    0.0000 C   0  0  0  0  0  0  0  0  0 23  0  0
   -3.6161    1.0216    0.0000 N   0  0  0  0  0  0  0  0  0  7  0  0
   -1.8351   -3.2209    0.0000 C   0  0  0  0  0  0  0  0  0 20  0  0
   -0.0967   -5.1517    0.0000 H   0  0  0  0  0  0  0  0  0  0  0  0
   -3.5736   -1.2902    0.0000 H   0  0  0  0  0  0  0  0  0  0  0  0
   -3.3025    4.0051    0.0000 C   0  0  0  0  0  0  0  0  0 22  0  0
   -0.7187    3.7336    0.0000 H   0  0  0  0  0  0  0  0  0  0  0  0
   -4.8297    1.9033    0.0000 C   0  0  0  0  0  0  0  0  0 33  0  0
   -2.9499   -4.2246    0.0000 H   0  0  0  0  0  0  0  0  0  0  0  0
   -4.6729    3.3950    0.0000 N   0  0  0  0  0  0  0  0  0  6  0  0
   -3.0811    4.9641    0.0000 H   0  0  0  0  0  0  0  0  0  0  0  0
   -6.2000    1.2931    0.0000 N   0  0  0  0  0  0  0  0  0  9  0  0
   -7.4135    2.1748    0.0000 C   0  0  0  0  0  0  0  0  0 34  0  0
   -6.3568   -0.1986    0.0000 H   0  0  0  0  0  0  0  0  0  0  0  0
   -7.2567    3.6666    0.0000 C   0  0  0  0  0  0  0  0  0 24  0  0
   -8.7838    1.5647    0.0000 C   0  0  0  0  0  0  0  0  0 36  0  0
   -8.4702    4.5483    0.0000 C   0  0  0  0  0  0  0  0  0 35  0  0
   -6.3156    3.9543    0.0000 H   0  0  0  0  0  0  0  0  0  0  0  0
   -8.9406    0.0729    0.0000 O   0  0  0  0  0  0  0  0  0  5  0  0
   -9.9973    2.4464    0.0000 N   0  0  0  0  0  0  0  0  0  8  0  0
   -9.8406    3.9382    0.0000 C   0  0  0  0  0  0  0  0  0 37  0  0
   -8.3134    6.0401    0.0000 N   0  0  0  0  0  0  0  0  0 10  0  0
  -10.3109   -0.5372    0.0000 C   0  0  0  0  0  0  0  0  0 30  0  0
  -11.0541    4.8199    0.0000 N   0  0  0  0  0  0  0  0  0 12  0  0
   -6.9431    6.6502    0.0000 C   0  0  0  0  0  0  0  0  0 31  0  0
   -9.0332    6.7113    0.0000 H   0  0  0  0  0  0  0  0  0  0  0  0
  -11.6812   -1.1473    0.0000 C   0  0  0  0  0  0  0  0  0 41  0  0
  -10.9210    0.8331    0.0000 H   0  0  0  0  0  0  0  0  0  0  0  0
   -9.7008   -1.9075    0.0000 H   0  0  0  0  0  0  0  0  0  0  0  0
  -10.8973    6.3116    0.0000 C   0  0  0  0  0  0  0  0  0 17  0  0
  -12.4244    4.2098    0.0000 C   0  0  0  0  0  0  0  0  0 29  0  0
   -6.7863    8.1420    0.0000 O   0  0  0  0  0  0  0  0  0  4  0  0
   -5.7296    5.7685    0.0000 C   0  0  0  0  0  0  0  0  0 19  0  0
  -13.0516   -1.7574    0.0000 F   0  0  0  0  0  0  0  0  0  1  0  0
  -12.2914    0.2230    0.0000 F   0  0  0  0  0  0  0  0  0  2  0  0
  -11.0711   -2.5176    0.0000 F   0  0  0  0  0  0  0  0  0  3  0  0
  -10.7405    7.8034    0.0000 H   0  0  0  0  0  0  0  0  0  0  0  0
  -12.3891    6.4684    0.0000 H   0  0  0  0  0  0  0  0  0  0  0  0
   -9.9133    6.3288    0.0000 H   0  0  0  0  0  0  0  0  0  0  0  0
  -13.7947    3.5996    0.0000 C   0  0  0  0  0  0  0  0  0 28  0  0
  -11.8143    2.8394    0.0000 H   0  0  0  0  0  0  0  0  0  0  0  0
  -13.0345    5.5801    0.0000 H   0  0  0  0  0  0  0  0  0  0  0  0
   -4.3593    6.3786    0.0000 C   0  0  0  0  0  0  0  0  0 14  0  0
   -5.7124    4.7845    0.0000 H   0  0  0  0  0  0  0  0  0  0  0  0
  -15.1650    2.9895    0.0000 N   0  0  0  0  0  0  0  0  0 11  0  0
  -14.4048    4.9700    0.0000 H   0  0  0  0  0  0  0  0  0  0  0  0
  -13.1846    2.2293    0.0000 H   0  0  0  0  0  0  0  0  0  0  0  0
   -3.4985    5.9015    0.0000 H   0  0  0  0  0  0  0  0  0  0  0  0
   -4.2025    7.8704    0.0000 H   0  0  0  0  0  0  0  0  0  0  0  0
  -16.3786    3.8712    0.0000 C   0  0  0  0  0  0  0  0  0 15  0  0
  -15.3218    1.4978    0.0000 C   0  0  0  0  0  0  0  0  0 16  0  0
  -17.5921    4.7529    0.0000 H   0  0  0  0  0  0  0  0  0  0  0  0
  -17.2602    2.6577    0.0000 H   0  0  0  0  0  0  0  0  0  0  0  0
  -15.4969    5.0847    0.0000 H   0  0  0  0  0  0  0  0  0  0  0  0
  -15.4786    0.0060    0.0000 H   0  0  0  0  0  0  0  0  0  0  0  0
  -16.8136    1.6546    0.0000 H   0  0  0  0  0  0  0  0  0  0  0  0
  -13.8300    1.3410    0.0000 H   0  0  0  0  0  0  0  0  0  0  0  0
    2.7760    0.0000    0.0000 H   0  0  0  0  0  0  0  0  0  0  0  0
  2  1  1  0
  1  3  1  0
  4  2  2  0
  2  5  1  0
  3  6  2  0
  7  3  1  0
  8  4  1  0
  7  4  1  0
  6  9  1  0
  6 10  1  0
 11  7  2  0
 12  8  2  0
  8 13  1  0
  9 14  2  0
  9 15  1  0
 14 11  1  0
 11 16  1  0
 17 12  1  0
 12 18  1  0
 13 19  2  0
 14 20  1  0
 21 17  2  0
 17 22  1  0
 23 19  1  0
 19 21  1  0
 24 23  1  0
 23 25  1  0
 26 24  2  0
 24 27  1  0
 28 26  1  0
 26 29  1  0
 30 27  1  0
 27 31  2  0
 32 28  2  0
 28 33  1  0
 34 30  1  0
 31 32  1  0
 32 35  1  0
 33 36  1  0
 33 37  1  0
 38 34  1  0
 34 39  1  0
 34 40  1  0
 35 41  1  0
 35 42  1  0
 36 43  2  0
 36 44  1  0
 45 38  1  0
 38 46  1  0
 38 47  1  0
 41 48  1  0
 41 49  1  0
 41 50  1  0
 42 51  1  0
 42 52  1  0
 42 53  1  0
 44 54  2  0
 44 55  1  0
 51 56  1  0
 51 57  1  0
 51 58  1  0
 54 59  1  0
 54 60  1  0
 56 61  1  0
 56 62  1  0
 61 63  1  0
 61 64  1  0
 61 65  1  0
 62 66  1  0
 62 67  1  0
 62 68  1  0
  1 69  1  0
M  END
>  <SMILES>  (3) 
C=CC(=O)Nc1cc(Nc2nccc(-c3c[nH]c4ccccc34)n2)c(OCC(F)(F)F)nc1N(C)CCN(C)C

>  <Molecular Weight>  (3) 
554.6

>  <Substrate_ID>  (3) 
MOL0062

>  <Substrate>  (3) 


>  <Substrate_SMILES>  (3) 
C=CC(=O)Nc1cc(Nc2nccc(-c3cn(C)c4ccccc34)n2)c(OCC(F)(F)F)nc1N(C)CCN(C)C

>  <Reaction>  (3) 
N-demethylation_(nCH3)

>  <Score>  (3) 
0.3434

>  <Reaction_Score>  (3) 
0.3487

>  <Bond_Score>  (3) 
0.3381

>  <Rank>  (3) 
3

>  <Subtype>  (3) 
REACTION

>  <Subtype_Scores>  (3) 
[REACTION] SOM_score: 0.3381, Reaction_score: 0.3487, Score: 0.3434


$$$$
