
     RDKit          2D

 39 40  0  0  0  0  0  0  0  0999 V2000
    4.5000   -2.5981    0.0000 C   0  0  0  0  0  0  0  0  0 22  0  0
    5.2500   -3.8971    0.0000 C   0  0  0  0  0  0  0  0  0  8  0  0
    6.0000   -5.1962    0.0000 O   0  0  0  0  0  0  0  0  0 23  0  0
    3.7500   -1.2990    0.0000 C   0  0  0  0  0  0  0  0  0 14  0  0
    5.7990   -1.8481    0.0000 C   0  0  0  0  0  0  0  0  0  9  0  0
    3.2010   -3.3481    0.0000 H   0  0  0  0  0  0  0  0  0  0  0  0
    3.0000    0.0000    0.0000 O   0  0  0  0  0  0  0  0  0  4  0  0
    2.4510   -2.0490    0.0000 H   0  0  0  0  0  0  0  0  0  0  0  0
    4.4574   -0.7660    0.0000 H   0  0  0  0  0  0  0  0  0  0  0  0
    7.0981   -1.0981    0.0000 H   0  0  0  0  0  0  0  0  0  0  0  0
    6.3321   -2.5554    0.0000 H   0  0  0  0  0  0  0  0  0  0  0  0
    5.4530   -1.0327    0.0000 H   0  0  0  0  0  0  0  0  0  0  0  0
    1.5000    0.0000    0.0000 C   0  0  0  0  0  0  0  0  0 19  0  0
    0.7500   -1.2990    0.0000 C   0  0  0  0  0  0  0  0  0 13  0  0
    0.7500    1.2990    0.0000 C   0  0  0  0  0  0  0  0  0 18  0  0
   -0.7500   -1.2990    0.0000 C   0  0  0  0  0  0  0  0  0 11  0  0
    1.5000   -2.5981    0.0000 H   0  0  0  0  0  0  0  0  0  0  0  0
    1.5000    2.5981    0.0000 C   0  0  0  0  0  0  0  0  0 10  0  0
   -0.7500    1.2990    0.0000 C   0  0  0  0  0  0  0  0  0 12  0  0
   -1.5000    0.0000    0.0000 C   0  0  0  0  0  0  0  0  0 16  0  0
   -1.5000   -2.5981    0.0000 H   0  0  0  0  0  0  0  0  0  0  0  0
    2.2500    3.8971    0.0000 N   0  0  0  0  0  0  0  0  0  5  0  0
   -1.5000    2.5981    0.0000 H   0  0  0  0  0  0  0  0  0  0  0  0
   -3.0000    0.0000    0.0000 C   0  0  0  0  0  0  0  0  0 17  0  0
   -3.8817   -1.2135    0.0000 S   0  0  0  0  0  0  0  0  0  1  0  0
   -3.8817    1.2135    0.0000 N   0  0  0  0  0  0  0  0  0  6  0  0
   -5.3083   -0.7500    0.0000 C   0  0  0  0  0  0  0  0  0 21  0  0
   -5.3083    0.7500    0.0000 C   0  0  0  0  0  0  0  0  0 20  0  0
   -6.5218   -1.6317    0.0000 C   0  0  0  0  0  0  0  0  0 15  0  0
   -6.5218    1.6317    0.0000 C   0  0  0  0  0  0  0  0  0  7  0  0
   -7.8921   -1.0216    0.0000 O   0  0  0  0  0  0  0  0  0  2  0  0
   -6.3650   -3.1235    0.0000 O   0  0  0  0  0  0  0  0  0  3  0  0
   -7.7353    2.5134    0.0000 H   0  0  0  0  0  0  0  0  0  0  0  0
   -5.6401    2.8452    0.0000 H   0  0  0  0  0  0  0  0  0  0  0  0
   -7.4035    0.4182    0.0000 H   0  0  0  0  0  0  0  0  0  0  0  0
   -7.5785   -4.0051    0.0000 H   0  0  0  0  0  0  0  0  0  0  0  0
    6.0653   -3.5511    0.0000 H   0  0  0  0  0  0  0  0  0  0  0  0
    3.9510   -4.6471    0.0000 H   0  0  0  0  0  0  0  0  0  0  0  0
    5.2500   -6.4952    0.0000 H   0  0  0  0  0  0  0  0  0  0  0  0
  1  2  1  0
  2  3  1  0
  4  1  1  0
  1  5  1  0
  1  6  1  0
  7  4  1  0
  4  8  1  0
  4  9  1  0
  5 10  1  0
  5 11  1  0
  5 12  1  0
 13  7  1  0
 14 13  2  0
 13 15  1  0
 16 14  1  0
 14 17  1  0
 15 18  1  0
 15 19  2  0
 20 16  2  0
 16 21  1  0
 18 22  3  0
 19 20  1  0
 19 23  1  0
 24 20  1  0
 25 24  1  0
 24 26  2  0
 27 25  1  0
 26 28  1  0
 28 27  2  0
 27 29  1  0
 28 30  1  0
 29 31  2  0
 29 32  1  0
 30 33  1  0
 30 34  1  0
 30 35  1  0
 32 36  1  0
  2 37  1  0
  2 38  1  0
  3 39  1  0
M  END
>  <SMILES>  (1) 
Cc1nc(-c2ccc(OCC(C)CO)c(C#N)c2)sc1C(=O)O

>  <Molecular Weight>  (1) 
332.4

>  <Substrate_ID>  (1) 
MOL0020

>  <Substrate>  (1) 


>  <Substrate_SMILES>  (1) 
Cc1nc(-c2ccc(OCC(C)C)c(C#N)c2)sc1C(=O)O

>  <Reaction>  (1) 
aliphatic_hydroxylation_(primary_carbon_next_to_tert_carbon),aliphatic hydroxylation

>  <Score>  (1) 
0.2016

>  <Reaction_Score>  (1) 
0.1911

>  <Bond_Score>  (1) 
0.2126

>  <Rank>  (1) 
1

>  <Subtype>  (1) 
2C8

>  <Subtype_Scores>  (1) 
[2C8] SOM_score: 0.1535, Reaction_score: 0.1911, Score: 0.1713


$$$$
