
     RDKit          2D

 32 32  0  0  0  0  0  0  0  0999 V2000
    2.4510   -2.0490    0.0000 S   0  0  0  0  0  4  0  0  0  1  0  0
    2.3538   -2.8403    0.0000 O   0  0  0  0  0  0  0  0  0 17  0  0
    3.7500   -1.2990    0.0000 P   0  0  0  0  0  5  0  0  0  3  0  0
    3.0000    0.0000    0.0000 O   0  0  0  0  0  0  0  0  0  4  0  0
    4.5000   -2.5981    0.0000 O   0  0  0  0  0  0  0  0  0  5  0  0
    5.0490   -0.5490    0.0000 O   0  0  0  0  0  0  0  0  0  6  0  0
    1.5000    0.0000    0.0000 C   0  0  0  0  0  0  0  0  0  8  0  0
    3.7500   -3.8971    0.0000 C   0  0  0  0  0  0  0  0  0  9  0  0
    6.3481   -1.2990    0.0000 C   0  0  0  0  0  0  0  0  0 10  0  0
    0.7500   -1.2990    0.0000 C   0  0  0  0  0  0  0  0  0  7  0  0
    0.7500    1.2990    0.0000 C   0  0  0  0  0  0  0  0  0 11  0  0
    3.0000   -5.1962    0.0000 H   0  0  0  0  0  0  0  0  0  0  0  0
    5.0490   -4.6471    0.0000 H   0  0  0  0  0  0  0  0  0  0  0  0
    2.9347   -3.5511    0.0000 H   0  0  0  0  0  0  0  0  0  0  0  0
    7.6471   -2.0490    0.0000 H   0  0  0  0  0  0  0  0  0  0  0  0
    7.0981    0.0000    0.0000 H   0  0  0  0  0  0  0  0  0  0  0  0
    5.5981   -2.5981    0.0000 H   0  0  0  0  0  0  0  0  0  0  0  0
   -0.7500   -1.2990    0.0000 C   0  0  0  0  0  0  0  0  0 15  0  0
    1.5000   -2.5981    0.0000 H   0  0  0  0  0  0  0  0  0  0  0  0
   -0.7500    1.2990    0.0000 C   0  0  0  0  0  0  0  0  0 12  0  0
    1.5000    2.5981    0.0000 H   0  0  0  0  0  0  0  0  0  0  0  0
   -1.5000    0.0000    0.0000 C   0  0  0  0  0  0  0  0  0 13  0  0
   -1.5000   -2.5981    0.0000 H   0  0  0  0  0  0  0  0  0  0  0  0
   -1.5000    2.5981    0.0000 C   0  0  0  0  0  0  0  0  0 16  0  0
   -3.0000    0.0000    0.0000 S   0  0  0  0  0  0  0  0  0  2  0  0
   -2.2500    3.8971    0.0000 H   0  0  0  0  0  0  0  0  0  0  0  0
   -2.8808    2.0120    0.0000 H   0  0  0  0  0  0  0  0  0  0  0  0
   -0.2010    3.3481    0.0000 H   0  0  0  0  0  0  0  0  0  0  0  0
   -3.7500    1.2990    0.0000 C   0  0  0  0  0  0  0  0  0 14  0  0
   -4.5000    2.5981    0.0000 H   0  0  0  0  0  0  0  0  0  0  0  0
   -5.0490    0.5490    0.0000 H   0  0  0  0  0  0  0  0  0  0  0  0
   -2.5521    2.2018    0.0000 H   0  0  0  0  0  0  0  0  0  0  0  0
  1  2  2  0
  1  3  2  0
  3  4  1  0
  3  5  1  0
  3  6  1  0
  4  7  1  0
  5  8  1  0
  6  9  1  0
  7 10  2  0
 11  7  1  0
  8 12  1  0
  8 13  1  0
  8 14  1  0
  9 15  1  0
  9 16  1  0
  9 17  1  0
 10 18  1  0
 10 19  1  0
 20 11  2  0
 11 21  1  0
 18 22  2  0
 18 23  1  0
 22 20  1  0
 20 24  1  0
 22 25  1  0
 24 26  1  0
 24 27  1  0
 24 28  1  0
 25 29  1  0
 29 30  1  0
 29 31  1  0
 29 32  1  0
M  END
>  <SMILES>  (1) 
COP(OC)(Oc1ccc(SC)c(C)c1)=S=O

>  <Molecular Weight>  (1) 
294.3

>  <Substrate_ID>  (1) 
MOL0080

>  <Substrate>  (1) 


>  <Substrate_SMILES>  (1) 
COP(=S)(OC)Oc1ccc(SC)c(C)c1

>  <Reaction>  (1) 
S-oxidation

>  <Score>  (1) 
0.3918

>  <Reaction_Score>  (1) 
0.1876

>  <Bond_Score>  (1) 
0.8185

>  <Rank>  (1) 
1

>  <Subtype>  (1) 
1A2, 2A6, 2B6, 2C8, 2C9, 2C19, 2D6, 2E1, 3A4

>  <Subtype_Scores>  (1) 
[1A2] SOM_score: 0.7981, Reaction_score: 0.1876, Score: 0.3869
[2A6] SOM_score: 0.3631, Reaction_score: 0.1876, Score: 0.2609
[2B6] SOM_score: 0.8185, Reaction_score: 0.1876, Score: 0.3918
[2C8] SOM_score: 0.6820, Reaction_score: 0.1876, Score: 0.3577
[2C9] SOM_score: 0.6450, Reaction_score: 0.1876, Score: 0.3478
[2C19] SOM_score: 0.7855, Reaction_score: 0.1876, Score: 0.3838
[2D6] SOM_score: 0.7640, Reaction_score: 0.1876, Score: 0.3785
[2E1] SOM_score: 0.2390, Reaction_score: 0.1876, Score: 0.2117
[3A4] SOM_score: 0.8047, Reaction_score: 0.1876, Score: 0.3885


$$$$

     RDKit          2D

 32 32  0  0  0  0  0  0  0  0999 V2000
    1.5000    0.0000    0.0000 C   0  0  0  0  0  0  0  0  0 13  0  0
    3.0000    0.0000    0.0000 S   0  0  0  0  0  4  0  0  0  2  0  0
    3.7500    1.2990    0.0000 O   0  0  0  0  0  0  0  0  0 17  0  0
    3.7500   -1.2990    0.0000 C   0  0  0  0  0  0  0  0  0 14  0  0
    0.7500   -1.2990    0.0000 C   0  0  0  0  0  0  0  0  0 15  0  0
    0.7500    1.2990    0.0000 C   0  0  0  0  0  0  0  0  0 12  0  0
   -0.7500   -1.2990    0.0000 C   0  0  0  0  0  0  0  0  0  7  0  0
    1.5000   -2.5981    0.0000 H   0  0  0  0  0  0  0  0  0  0  0  0
    1.5000    2.5981    0.0000 C   0  0  0  0  0  0  0  0  0 16  0  0
   -0.7500    1.2990    0.0000 C   0  0  0  0  0  0  0  0  0 11  0  0
   -1.5000    0.0000    0.0000 C   0  0  0  0  0  0  0  0  0  8  0  0
   -1.5000   -2.5981    0.0000 H   0  0  0  0  0  0  0  0  0  0  0  0
    2.2500    3.8971    0.0000 H   0  0  0  0  0  0  0  0  0  0  0  0
    0.2010    3.3481    0.0000 H   0  0  0  0  0  0  0  0  0  0  0  0
    2.7990    1.8481    0.0000 H   0  0  0  0  0  0  0  0  0  0  0  0
   -1.5000    2.5981    0.0000 H   0  0  0  0  0  0  0  0  0  0  0  0
   -3.0000    0.0000    0.0000 O   0  0  0  0  0  0  0  0  0  4  0  0
   -3.7500    1.2990    0.0000 P   0  0  0  0  0  5  0  0  0  3  0  0
   -2.4510    2.0490    0.0000 S   0  0  0  0  0  0  0  0  0  1  0  0
   -4.5000    2.5981    0.0000 O   0  0  0  0  0  0  0  0  0  5  0  0
   -5.0490    0.5490    0.0000 O   0  0  0  0  0  0  0  0  0  6  0  0
   -3.7500    3.8971    0.0000 C   0  0  0  0  0  0  0  0  0  9  0  0
   -6.3481    1.2990    0.0000 C   0  0  0  0  0  0  0  0  0 10  0  0
   -3.0000    5.1962    0.0000 H   0  0  0  0  0  0  0  0  0  0  0  0
   -5.0490    4.6471    0.0000 H   0  0  0  0  0  0  0  0  0  0  0  0
   -2.4510    3.1471    0.0000 H   0  0  0  0  0  0  0  0  0  0  0  0
   -7.6471    2.0490    0.0000 H   0  0  0  0  0  0  0  0  0  0  0  0
   -7.0981    0.0000    0.0000 H   0  0  0  0  0  0  0  0  0  0  0  0
   -5.5981    2.5981    0.0000 H   0  0  0  0  0  0  0  0  0  0  0  0
    4.5000   -2.5981    0.0000 H   0  0  0  0  0  0  0  0  0  0  0  0
    5.0490   -0.5490    0.0000 H   0  0  0  0  0  0  0  0  0  0  0  0
    2.4510   -2.0490    0.0000 H   0  0  0  0  0  0  0  0  0  0  0  0
  1  2  1  0
  2  3  2  0
  2  4  1  0
  5  1  2  0
  1  6  1  0
  7  5  1  0
  5  8  1  0
  6  9  1  0
  6 10  2  0
 11  7  2  0
  7 12  1  0
  9 13  1  0
  9 14  1  0
  9 15  1  0
 10 11  1  0
 10 16  1  0
 17 11  1  0
 18 17  1  0
 19 18  2  0
 18 20  1  0
 18 21  1  0
 20 22  1  0
 21 23  1  0
 22 24  1  0
 22 25  1  0
 22 26  1  0
 23 27  1  0
 23 28  1  0
 23 29  1  0
  4 30  1  0
  4 31  1  0
  4 32  1  0
M  END
>  <SMILES>  (2) 
COP(=S)(OC)Oc1ccc(S(C)=O)c(C)c1

>  <Molecular Weight>  (2) 
294.3

>  <Substrate_ID>  (2) 
MOL0080

>  <Substrate>  (2) 


>  <Substrate_SMILES>  (2) 
COP(=S)(OC)Oc1ccc(SC)c(C)c1

>  <Reaction>  (2) 
sulfide_oxidation_(c-S-C),S-oxidation

>  <Score>  (2) 
0.3321

>  <Reaction_Score>  (2) 
0.2065

>  <Bond_Score>  (2) 
0.5341

>  <Rank>  (2) 
2

>  <Subtype>  (2) 
1A2, 2A6, 2B6, 2C9, 2C19, 2D6, 3A4

>  <Subtype_Scores>  (2) 
[1A2] SOM_score: 0.4845, Reaction_score: 0.2065, Score: 0.3163
[2A6] SOM_score: 0.3071, Reaction_score: 0.2065, Score: 0.2518
[2B6] SOM_score: 0.3882, Reaction_score: 0.2065, Score: 0.2832
[2C9] SOM_score: 0.4053, Reaction_score: 0.2065, Score: 0.2893
[2C19] SOM_score: 0.4349, Reaction_score: 0.2065, Score: 0.2997
[2D6] SOM_score: 0.3814, Reaction_score: 0.2065, Score: 0.2806
[3A4] SOM_score: 0.5341, Reaction_score: 0.2065, Score: 0.3321


$$$$

     RDKit          2D

 31 31  0  0  0  0  0  0  0  0999 V2000
    3.7500   -1.2990    0.0000 P   0  0  0  0  0  5  0  0  0  3  0  0
    4.5000   -2.5981    0.0000 O   0  0  0  0  0  0  0  0  0 17  0  0
    3.0000    0.0000    0.0000 O   0  0  0  0  0  0  0  0  0  4  0  0
    2.4510   -2.0490    0.0000 O   0  0  0  0  0  0  0  0  0  5  0  0
    5.0490   -0.5490    0.0000 O   0  0  0  0  0  0  0  0  0  6  0  0
    1.5000    0.0000    0.0000 C   0  0  0  0  0  0  0  0  0  8  0  0
    2.4510   -3.5490    0.0000 C   0  0  0  0  0  0  0  0  0  9  0  0
    6.3481   -1.2990    0.0000 C   0  0  0  0  0  0  0  0  0 10  0  0
    0.7500   -1.2990    0.0000 C   0  0  0  0  0  0  0  0  0  7  0  0
    0.7500    1.2990    0.0000 C   0  0  0  0  0  0  0  0  0 11  0  0
    2.4510   -5.0490    0.0000 H   0  0  0  0  0  0  0  0  0  0  0  0
    0.9510   -3.5490    0.0000 H   0  0  0  0  0  0  0  0  0  0  0  0
    3.9510   -3.5490    0.0000 H   0  0  0  0  0  0  0  0  0  0  0  0
    7.6471   -2.0490    0.0000 H   0  0  0  0  0  0  0  0  0  0  0  0
    7.0981    0.0000    0.0000 H   0  0  0  0  0  0  0  0  0  0  0  0
    5.5981   -2.5981    0.0000 H   0  0  0  0  0  0  0  0  0  0  0  0
   -0.7500   -1.2990    0.0000 C   0  0  0  0  0  0  0  0  0 15  0  0
    1.5000   -2.5981    0.0000 H   0  0  0  0  0  0  0  0  0  0  0  0
   -0.7500    1.2990    0.0000 C   0  0  0  0  0  0  0  0  0 12  0  0
    1.5000    2.5981    0.0000 H   0  0  0  0  0  0  0  0  0  0  0  0
   -1.5000    0.0000    0.0000 C   0  0  0  0  0  0  0  0  0 13  0  0
   -1.5000   -2.5981    0.0000 H   0  0  0  0  0  0  0  0  0  0  0  0
   -1.5000    2.5981    0.0000 C   0  0  0  0  0  0  0  0  0 16  0  0
   -3.0000    0.0000    0.0000 S   0  0  0  0  0  0  0  0  0  2  0  0
   -2.2500    3.8971    0.0000 H   0  0  0  0  0  0  0  0  0  0  0  0
   -2.7990    1.8481    0.0000 H   0  0  0  0  0  0  0  0  0  0  0  0
   -0.2010    3.3481    0.0000 H   0  0  0  0  0  0  0  0  0  0  0  0
   -3.7500   -1.2990    0.0000 C   0  0  0  0  0  0  0  0  0 14  0  0
   -4.5000   -2.5981    0.0000 H   0  0  0  0  0  0  0  0  0  0  0  0
   -2.4510   -2.0490    0.0000 H   0  0  0  0  0  0  0  0  0  0  0  0
   -5.0490   -0.5490    0.0000 H   0  0  0  0  0  0  0  0  0  0  0  0
  1  2  2  0
  1  3  1  0
  1  4  1  0
  1  5  1  0
  3  6  1  0
  4  7  1  0
  5  8  1  0
  6  9  2  0
 10  6  1  0
  7 11  1  0
  7 12  1  0
  7 13  1  0
  8 14  1  0
  8 15  1  0
  8 16  1  0
  9 17  1  0
  9 18  1  0
 19 10  2  0
 10 20  1  0
 17 21  2  0
 17 22  1  0
 21 19  1  0
 19 23  1  0
 21 24  1  0
 23 25  1  0
 23 26  1  0
 23 27  1  0
 24 28  1  0
 28 29  1  0
 28 30  1  0
 28 31  1  0
M  END
>  <SMILES>  (3) 
COP(=O)(OC)Oc1ccc(SC)c(C)c1

>  <Molecular Weight>  (3) 
262.3

>  <Substrate_ID>  (3) 
MOL0080

>  <Substrate>  (3) 


>  <Substrate_SMILES>  (3) 
COP(=S)(OC)Oc1ccc(SC)c(C)c1

>  <Reaction>  (3) 
phosphine_sulphide_hydrolysis

>  <Score>  (3) 
0.2159

>  <Reaction_Score>  (3) 
0.0583

>  <Bond_Score>  (3) 
0.7994

>  <Rank>  (3) 
3

>  <Subtype>  (3) 
1A2, 2A6, 2B6, 2C8, 2C9, 2C19, 2D6, 2E1, 3A4

>  <Subtype_Scores>  (3) 
[1A2] SOM_score: 0.7140, Reaction_score: 0.0583, Score: 0.2040
[2A6] SOM_score: 0.2458, Reaction_score: 0.0583, Score: 0.1197
[2B6] SOM_score: 0.7994, Reaction_score: 0.0583, Score: 0.2159
[2C8] SOM_score: 0.6949, Reaction_score: 0.0583, Score: 0.2013
[2C9] SOM_score: 0.5411, Reaction_score: 0.0583, Score: 0.1776
[2C19] SOM_score: 0.7149, Reaction_score: 0.0583, Score: 0.2042
[2D6] SOM_score: 0.6390, Reaction_score: 0.0583, Score: 0.1930
[2E1] SOM_score: 0.2844, Reaction_score: 0.0583, Score: 0.1288
[3A4] SOM_score: 0.7160, Reaction_score: 0.0583, Score: 0.2043


$$$$
