
     RDKit          2D

 64 67  0  0  0  0  0  0  0  0999 V2000
   -0.4086    3.6844    0.0000 C   0  0  0  0  0  0  0  0  0 24  0  0
   -1.8351    3.2209    0.0000 N   0  0  0  0  0  0  0  0  0 12  0  0
   -2.1470    1.7537    0.0000 C   0  0  0  0  0  0  0  0  0 25  0  0
    0.7062    2.6807    0.0000 C   0  0  0  0  0  0  0  0  0 20  0  0
    0.7735    4.6079    0.0000 H   0  0  0  0  0  0  0  0  0  0  0  0
   -1.1128    5.0089    0.0000 H   0  0  0  0  0  0  0  0  0  0  0  0
    0.3943    1.2135    0.0000 C   0  0  0  0  0  0  0  0  0 33  0  0
    2.0969    2.1188    0.0000 H   0  0  0  0  0  0  0  0  0  0  0  0
    1.5010    3.9528    0.0000 H   0  0  0  0  0  0  0  0  0  0  0  0
   -1.0323    0.7500    0.0000 C   0  0  0  0  0  0  0  0  0 34  0  0
    1.2760    0.0000    0.0000 N   0  0  0  0  0  0  0  0  0  8  0  0
   -1.0323   -0.7500    0.0000 S   0  0  0  0  0  0  0  0  0  2  0  0
    0.3943   -1.2135    0.0000 C   0  0  0  0  0  0  0  0  0 32  0  0
    0.8578   -2.6401    0.0000 C   0  0  0  0  0  0  0  0  0 28  0  0
   -0.1459   -3.7548    0.0000 N   0  0  0  0  0  0  0  0  0 11  0  0
    2.1783   -2.9208    0.0000 O   0  0  0  0  0  0  0  0  0  5  0  0
    0.3177   -5.1814    0.0000 C   0  0  0  0  0  0  0  0  0 37  0  0
   -1.0764   -3.4344    0.0000 H   0  0  0  0  0  0  0  0  0  0  0  0
   -1.1677   -5.3902    0.0000 C   0  0  0  0  0  0  0  0  0 23  0  0
    1.2411   -6.3634    0.0000 C   0  0  0  0  0  0  0  0  0 36  0  0
    1.1238   -4.6169    0.0000 H   0  0  0  0  0  0  0  0  0  0  0  0
   -1.7297   -6.7809    0.0000 C   0  0  0  0  0  0  0  0  0 35  0  0
   -2.5860   -4.9018    0.0000 H   0  0  0  0  0  0  0  0  0  0  0  0
   -1.2535   -4.4098    0.0000 H   0  0  0  0  0  0  0  0  0  0  0  0
    2.2448   -5.2487    0.0000 N   0  0  0  0  0  0  0  0  0 10  0  0
    0.6792   -7.7542    0.0000 C   0  0  0  0  0  0  0  0  0 22  0  0
    2.5132   -7.1583    0.0000 H   0  0  0  0  0  0  0  0  0  0  0  0
   -0.8062   -7.9630    0.0000 C   0  0  0  0  0  0  0  0  0 21  0  0
   -2.7334   -7.8957    0.0000 C   0  0  0  0  0  0  0  0  0 29  0  0
   -2.8954   -5.8369    0.0000 H   0  0  0  0  0  0  0  0  0  0  0  0
    3.7121   -5.5606    0.0000 C   0  0  0  0  0  0  0  0  0 27  0  0
    2.0928   -4.4662    0.0000 H   0  0  0  0  0  0  0  0  0  0  0  0
    2.1465   -8.0661    0.0000 H   0  0  0  0  0  0  0  0  0  0  0  0
    0.6269   -9.2533    0.0000 H   0  0  0  0  0  0  0  0  0  0  0  0
   -0.3426   -9.3895    0.0000 H   0  0  0  0  0  0  0  0  0  0  0  0
   -2.0349   -8.8234    0.0000 H   0  0  0  0  0  0  0  0  0  0  0  0
   -2.4472   -9.3681    0.0000 O   0  0  0  0  0  0  0  0  0  6  0  0
   -4.2006   -7.5838    0.0000 N   0  0  0  0  0  0  0  0  0 13  0  0
    4.7158   -4.4459    0.0000 C   0  0  0  0  0  0  0  0  0 26  0  0
    4.1756   -6.9872    0.0000 O   0  0  0  0  0  0  0  0  0  4  0  0
   -5.2043   -8.6985    0.0000 C   0  0  0  0  0  0  0  0  0 15  0  0
   -4.6641   -6.1572    0.0000 C   0  0  0  0  0  0  0  0  0 16  0  0
    6.1830   -4.7577    0.0000 N   0  0  0  0  0  0  0  0  0  9  0  0
    4.2522   -3.0193    0.0000 O   0  0  0  0  0  0  0  0  0  3  0  0
   -6.2080   -9.8132    0.0000 H   0  0  0  0  0  0  0  0  0  0  0  0
   -6.3190   -7.6948    0.0000 H   0  0  0  0  0  0  0  0  0  0  0  0
   -4.0896   -9.7022    0.0000 H   0  0  0  0  0  0  0  0  0  0  0  0
   -5.1276   -4.7306    0.0000 H   0  0  0  0  0  0  0  0  0  0  0  0
   -6.0907   -6.6207    0.0000 H   0  0  0  0  0  0  0  0  0  0  0  0
   -3.3921   -5.3623    0.0000 H   0  0  0  0  0  0  0  0  0  0  0  0
    7.1867   -3.6430    0.0000 C   0  0  0  0  0  0  0  0  0 31  0  0
    6.6465   -6.1843    0.0000 H   0  0  0  0  0  0  0  0  0  0  0  0
    8.6539   -3.9549    0.0000 C   0  0  0  0  0  0  0  0  0 19  0  0
    6.7232   -2.2164    0.0000 N   0  0  0  0  0  0  0  0  0  7  0  0
    9.6576   -2.8402    0.0000 C   0  0  0  0  0  0  0  0  0 17  0  0
    9.1174   -5.3815    0.0000 H   0  0  0  0  0  0  0  0  0  0  0  0
    7.7268   -1.1017    0.0000 C   0  0  0  0  0  0  0  0  0 18  0  0
    9.1941   -1.4136    0.0000 C   0  0  0  0  0  0  0  0  0 30  0  0
   11.1248   -3.1520    0.0000 H   0  0  0  0  0  0  0  0  0  0  0  0
    7.2633    0.3249    0.0000 H   0  0  0  0  0  0  0  0  0  0  0  0
   10.1978   -0.2989    0.0000 Cl  0  0  0  0  0  0  0  0  0  1  0  0
   -3.5378    2.3156    0.0000 H   0  0  0  0  0  0  0  0  0  0  0  0
   -2.9419    0.4816    0.0000 H   0  0  0  0  0  0  0  0  0  0  0  0
   -2.9499    4.2246    0.0000 H   0  0  0  0  0  0  0  0  0  0  0  0
  1  2  1  0
  2  3  1  0
  4  1  1  0
  1  5  1  0
  1  6  1  0
  7  4  1  0
  4  8  1  0
  4  9  1  0
 10  7  2  0
  7 11  1  0
 12 10  1  0
  3 10  1  0
 11 13  2  0
 13 12  1  0
 14 13  1  0
 15 14  1  0
 14 16  2  0
 17 15  1  0
 15 18  1  0
 19 17  1  0
 17 20  1  0
 17 21  1  6
 22 19  1  0
 19 23  1  0
 19 24  1  0
 25 20  1  0
 20 26  1  0
 20 27  1  6
 28 22  1  0
 22 29  1  0
 22 30  1  1
 31 25  1  0
 25 32  1  0
 26 28  1  0
 26 33  1  0
 26 34  1  0
 28 35  1  0
 28 36  1  0
 29 37  2  0
 29 38  1  0
 39 31  1  0
 31 40  2  0
 38 41  1  0
 38 42  1  0
 43 39  1  0
 39 44  2  0
 41 45  1  0
 41 46  1  0
 41 47  1  0
 42 48  1  0
 42 49  1  0
 42 50  1  0
 51 43  1  0
 43 52  1  0
 53 51  2  0
 51 54  1  0
 55 53  1  0
 53 56  1  0
 54 57  2  0
 58 55  2  0
 55 59  1  0
 57 58  1  0
 57 60  1  0
 61 58  1  0
  3 62  1  0
  3 63  1  0
  2 64  1  0
M  END
>  <SMILES>  (1) 
CN(C)C(=O)C1CCC(NC(=O)C(=O)Nc2ccc(Cl)cn2)C(NC(=O)c2nc3c(s2)CNCC3)C1

>  <Molecular Weight>  (1) 
534.0

>  <Substrate_ID>  (1) 
MOL0066

>  <Substrate>  (1) 


>  <Substrate_SMILES>  (1) 
CN1CCc2nc(C(=O)NC3CC(C(=O)N(C)C)CCC3NC(=O)C(=O)Nc3ccc(Cl)cn3)sc2C1

>  <Reaction>  (1) 
N-demethylation_(R-N(CR)CH3),N-demethylation_(tertiary_amine)

>  <Score>  (1) 
0.7359

>  <Reaction_Score>  (1) 
0.7156

>  <Bond_Score>  (1) 
0.7567

>  <Rank>  (1) 
1

>  <Subtype>  (1) 
2C8, 3A4

>  <Subtype_Scores>  (1) 
[2C8] SOM_score: 0.3744, Reaction_score: 0.7156, Score: 0.5176
[3A4] SOM_score: 0.7567, Reaction_score: 0.7156, Score: 0.7359


$$$$

     RDKit          2D

 64 67  0  0  0  0  0  0  0  0999 V2000
    3.4681    9.2138    0.0000 N   0  0  0  0  0  0  0  0  0 13  0  0
    3.0046    7.7872    0.0000 C   0  0  0  0  0  0  0  0  0 29  0  0
    2.4644   10.3285    0.0000 C   0  0  0  0  0  0  0  0  0 16  0  0
    4.0083    6.6725    0.0000 C   0  0  0  0  0  0  0  0  0 35  0  0
    2.0242    7.7015    0.0000 O   0  0  0  0  0  0  0  0  0  6  0  0
    5.3327    5.9683    0.0000 C   0  0  0  0  0  0  0  0  0 21  0  0
    2.7362    5.8776    0.0000 C   0  0  0  0  0  0  0  0  0 23  0  0
    4.9318    7.8545    0.0000 H   0  0  0  0  0  0  0  0  0  0  0  0
    5.3851    4.4692    0.0000 C   0  0  0  0  0  0  0  0  0 22  0  0
    5.7962    7.3949    0.0000 H   0  0  0  0  0  0  0  0  0  0  0  0
    6.8181    5.7596    0.0000 H   0  0  0  0  0  0  0  0  0  0  0  0
    2.7886    4.3786    0.0000 C   0  0  0  0  0  0  0  0  0 37  0  0
    1.2690    5.5658    0.0000 H   0  0  0  0  0  0  0  0  0  0  0  0
    2.2591    6.7384    0.0000 H   0  0  0  0  0  0  0  0  0  0  0  0
    4.1130    3.6744    0.0000 C   0  0  0  0  0  0  0  0  0 36  0  0
    6.8523    4.7811    0.0000 H   0  0  0  0  0  0  0  0  0  0  0  0
    5.8622    3.6085    0.0000 H   0  0  0  0  0  0  0  0  0  0  0  0
    2.3250    2.9520    0.0000 N   0  0  0  0  0  0  0  0  0 11  0  0
    1.3032    4.5873    0.0000 H   0  0  0  0  0  0  0  0  0  0  0  0
    5.1167    2.5596    0.0000 N   0  0  0  0  0  0  0  0  0 10  0  0
    3.6061    2.8308    0.0000 H   0  0  0  0  0  0  0  0  0  0  0  0
    0.8578    2.6401    0.0000 C   0  0  0  0  0  0  0  0  0 28  0  0
    2.8895    2.1458    0.0000 H   0  0  0  0  0  0  0  0  0  0  0  0
    4.6532    1.1331    0.0000 C   0  0  0  0  0  0  0  0  0 27  0  0
    6.0971    2.6454    0.0000 H   0  0  0  0  0  0  0  0  0  0  0  0
   -0.1459    3.7548    0.0000 O   0  0  0  0  0  0  0  0  0  5  0  0
    0.3943    1.2135    0.0000 C   0  0  0  0  0  0  0  0  0 32  0  0
    5.6569    0.0183    0.0000 C   0  0  0  0  0  0  0  0  0 26  0  0
    3.1859    0.8212    0.0000 O   0  0  0  0  0  0  0  0  0  4  0  0
    1.2760    0.0000    0.0000 S   0  0  0  0  0  0  0  0  0  2  0  0
   -1.0323    0.7500    0.0000 N   0  0  0  0  0  0  0  0  0  8  0  0
    5.1933   -1.4082    0.0000 N   0  0  0  0  0  0  0  0  0  9  0  0
    7.1241    0.3302    0.0000 O   0  0  0  0  0  0  0  0  0  3  0  0
    0.3943   -1.2135    0.0000 C   0  0  0  0  0  0  0  0  0 34  0  0
   -1.0323   -0.7500    0.0000 C   0  0  0  0  0  0  0  0  0 33  0  0
    6.1970   -2.5230    0.0000 C   0  0  0  0  0  0  0  0  0 31  0  0
    3.7261   -1.7201    0.0000 H   0  0  0  0  0  0  0  0  0  0  0  0
    0.7062   -2.6807    0.0000 C   0  0  0  0  0  0  0  0  0 25  0  0
   -2.1470   -1.7537    0.0000 C   0  0  0  0  0  0  0  0  0 20  0  0
    5.7335   -3.9496    0.0000 C   0  0  0  0  0  0  0  0  0 19  0  0
    7.6643   -2.2111    0.0000 N   0  0  0  0  0  0  0  0  0  7  0  0
   -0.4086   -3.6844    0.0000 N   0  0  0  0  0  0  0  0  0 12  0  0
    1.6502   -3.8464    0.0000 H   0  0  0  0  0  0  0  0  0  0  0  0
    2.0969   -2.1188    0.0000 H   0  0  0  0  0  0  0  0  0  0  0  0
   -1.8351   -3.2209    0.0000 C   0  0  0  0  0  0  0  0  0 24  0  0
   -2.9419   -0.4816    0.0000 H   0  0  0  0  0  0  0  0  0  0  0  0
   -3.5378   -2.3156    0.0000 H   0  0  0  0  0  0  0  0  0  0  0  0
    6.7372   -5.0643    0.0000 C   0  0  0  0  0  0  0  0  0 17  0  0
    4.2663   -4.2614    0.0000 H   0  0  0  0  0  0  0  0  0  0  0  0
    8.6679   -3.3258    0.0000 C   0  0  0  0  0  0  0  0  0 18  0  0
   -0.0967   -5.1517    0.0000 C   0  0  0  0  0  0  0  0  0 14  0  0
   -3.3342   -3.2733    0.0000 H   0  0  0  0  0  0  0  0  0  0  0  0
   -2.2234   -4.6698    0.0000 H   0  0  0  0  0  0  0  0  0  0  0  0
    8.2044   -4.7524    0.0000 C   0  0  0  0  0  0  0  0  0 30  0  0
    6.2737   -6.4909    0.0000 H   0  0  0  0  0  0  0  0  0  0  0  0
   10.1352   -3.0139    0.0000 H   0  0  0  0  0  0  0  0  0  0  0  0
    0.2152   -6.6189    0.0000 H   0  0  0  0  0  0  0  0  0  0  0  0
   -1.5149   -5.6401    0.0000 H   0  0  0  0  0  0  0  0  0  0  0  0
    1.3976   -5.0210    0.0000 H   0  0  0  0  0  0  0  0  0  0  0  0
    9.2081   -5.8671    0.0000 Cl  0  0  0  0  0  0  0  0  0  1  0  0
    1.4607   11.4433    0.0000 H   0  0  0  0  0  0  0  0  0  0  0  0
    3.5791   11.3322    0.0000 H   0  0  0  0  0  0  0  0  0  0  0  0
    1.3497    9.3249    0.0000 H   0  0  0  0  0  0  0  0  0  0  0  0
    4.9353    9.5257    0.0000 H   0  0  0  0  0  0  0  0  0  0  0  0
  1  2  1  0
  1  3  1  0
  4  2  1  0
  2  5  2  0
  6  4  1  0
  4  7  1  0
  4  8  1  6
  9  6  1  0
  6 10  1  0
  6 11  1  0
  7 12  1  0
  7 13  1  0
  7 14  1  0
 15  9  1  0
  9 16  1  0
  9 17  1  0
 12 18  1  0
 12 15  1  0
 12 19  1  1
 20 15  1  0
 15 21  1  1
 18 22  1  0
 18 23  1  0
 24 20  1  0
 20 25  1  0
 22 26  2  0
 22 27  1  0
 28 24  1  0
 24 29  2  0
 27 30  1  0
 31 27  2  0
 32 28  1  0
 28 33  2  0
 30 34  1  0
 35 31  1  0
 36 32  1  0
 32 37  1  0
 34 35  2  0
 38 34  1  0
 35 39  1  0
 40 36  2  0
 36 41  1  0
 42 38  1  0
 38 43  1  0
 38 44  1  0
 39 45  1  0
 39 46  1  0
 39 47  1  0
 48 40  1  0
 40 49  1  0
 41 50  2  0
 45 42  1  0
 42 51  1  0
 45 52  1  0
 45 53  1  0
 54 48  2  0
 48 55  1  0
 50 54  1  0
 50 56  1  0
 51 57  1  0
 51 58  1  0
 51 59  1  0
 60 54  1  0
  3 61  1  0
  3 62  1  0
  3 63  1  0
  1 64  1  0
M  END
>  <SMILES>  (2) 
CNC(=O)C1CCC(NC(=O)C(=O)Nc2ccc(Cl)cn2)C(NC(=O)c2nc3c(s2)CN(C)CC3)C1

>  <Molecular Weight>  (2) 
534.0

>  <Substrate_ID>  (2) 
MOL0066

>  <Substrate>  (2) 


>  <Substrate_SMILES>  (2) 
CN1CCc2nc(C(=O)NC3CC(C(=O)N(C)C)CCC3NC(=O)C(=O)Nc3ccc(Cl)cn3)sc2C1

>  <Reaction>  (2) 
N-demethylation_(tertiary_amine)

>  <Score>  (2) 
0.5643

>  <Reaction_Score>  (2) 
0.5279

>  <Bond_Score>  (2) 
0.6032

>  <Rank>  (2) 
2

>  <Subtype>  (2) 
2C8, 3A4

>  <Subtype_Scores>  (2) 
[2C8] SOM_score: 0.2763, Reaction_score: 0.5279, Score: 0.3819
[3A4] SOM_score: 0.6032, Reaction_score: 0.5279, Score: 0.5643


$$$$
