
     RDKit          2D

 59 60  0  0  0  0  0  0  0  0999 V2000
    4.9859    4.0713    0.0000 S   0  0  0  0  0  4  0  0  0  1  0  0
    4.6741    2.6041    0.0000 O   0  0  0  0  0  0  0  0  0 27  0  0
    3.8712    5.0750    0.0000 N   0  0  0  0  0  0  0  0  0  5  0  0
    6.4125    4.5348    0.0000 N   0  0  0  0  0  0  0  0  0  6  0  0
    2.4446    4.6115    0.0000 C   0  0  0  0  0  0  0  0  0 16  0  0
    4.1831    6.5422    0.0000 C   0  0  0  0  0  0  0  0  0 25  0  0
    7.5272    3.5312    0.0000 C   0  0  0  0  0  0  0  0  0 17  0  0
    6.7244    6.0021    0.0000 C   0  0  0  0  0  0  0  0  0 21  0  0
    2.1328    3.1443    0.0000 O   0  0  0  0  0  0  0  0  0  3  0  0
    1.3299    5.6152    0.0000 O   0  0  0  0  0  0  0  0  0  4  0  0
    4.4949    8.0095    0.0000 H   0  0  0  0  0  0  0  0  0  0  0  0
    2.7158    6.8541    0.0000 H   0  0  0  0  0  0  0  0  0  0  0  0
    4.9368    6.2827    0.0000 H   0  0  0  0  0  0  0  0  0  0  0  0
    8.6419    2.5275    0.0000 C   0  0  0  0  0  0  0  0  0 18  0  0
    6.5235    2.4164    0.0000 H   0  0  0  0  0  0  0  0  0  0  0  0
    8.5309    4.6459    0.0000 H   0  0  0  0  0  0  0  0  0  0  0  0
    7.0362    7.4693    0.0000 C   0  0  0  0  0  0  0  0  0 22  0  0
    5.9302    6.0715    0.0000 H   0  0  0  0  0  0  0  0  0  0  0  0
    8.1916    5.6902    0.0000 H   0  0  0  0  0  0  0  0  0  0  0  0
    0.7062    2.6807    0.0000 C   0  0  0  0  0  0  0  0  0 15  0  0
    9.7567    1.5238    0.0000 C   0  0  0  0  0  0  0  0  0 19  0  0
    7.6382    1.4127    0.0000 H   0  0  0  0  0  0  0  0  0  0  0  0
    9.6456    3.6422    0.0000 H   0  0  0  0  0  0  0  0  0  0  0  0
    7.3481    8.9365    0.0000 C   0  0  0  0  0  0  0  0  0 23  0  0
    8.5035    7.1574    0.0000 H   0  0  0  0  0  0  0  0  0  0  0  0
    5.5690    7.7812    0.0000 H   0  0  0  0  0  0  0  0  0  0  0  0
    0.3943    1.2135    0.0000 C   0  0  0  0  0  0  0  0  0 10  0  0
   -0.4086    3.6844    0.0000 C   0  0  0  0  0  0  0  0  0 26  0  0
   10.8714    0.5201    0.0000 C   0  0  0  0  0  0  0  0  0 20  0  0
   10.7604    2.6385    0.0000 H   0  0  0  0  0  0  0  0  0  0  0  0
    8.7530    0.4090    0.0000 H   0  0  0  0  0  0  0  0  0  0  0  0
    7.6600   10.4037    0.0000 C   0  0  0  0  0  0  0  0  0 24  0  0
    8.8153    8.6246    0.0000 H   0  0  0  0  0  0  0  0  0  0  0  0
    5.8809    9.2484    0.0000 H   0  0  0  0  0  0  0  0  0  0  0  0
   -1.0323    0.7500    0.0000 C   0  0  0  0  0  0  0  0  0  9  0  0
    1.2760    0.0000    0.0000 O   0  0  0  0  0  0  0  0  0  2  0  0
   -1.8351    3.2209    0.0000 C   0  0  0  0  0  0  0  0  0  7  0  0
   -0.0967    5.1517    0.0000 H   0  0  0  0  0  0  0  0  0  0  0  0
   11.9861   -0.4836    0.0000 H   0  0  0  0  0  0  0  0  0  0  0  0
    9.8677   -0.5947    0.0000 H   0  0  0  0  0  0  0  0  0  0  0  0
   11.8751    1.6348    0.0000 H   0  0  0  0  0  0  0  0  0  0  0  0
    7.9718   11.8710    0.0000 H   0  0  0  0  0  0  0  0  0  0  0  0
    6.1928   10.7156    0.0000 H   0  0  0  0  0  0  0  0  0  0  0  0
    9.1272   10.0919    0.0000 H   0  0  0  0  0  0  0  0  0  0  0  0
   -2.1470    1.7537    0.0000 C   0  0  0  0  0  0  0  0  0  8  0  0
   -1.0323   -0.7500    0.0000 C   0  0  0  0  0  0  0  0  0 14  0  0
    0.3943   -1.2135    0.0000 C   0  0  0  0  0  0  0  0  0 11  0  0
   -2.9499    4.2246    0.0000 H   0  0  0  0  0  0  0  0  0  0  0  0
   -3.5736    1.2902    0.0000 H   0  0  0  0  0  0  0  0  0  0  0  0
   -1.5207   -2.1683    0.0000 H   0  0  0  0  0  0  0  0  0  0  0  0
   -2.5241   -0.5932    0.0000 H   0  0  0  0  0  0  0  0  0  0  0  0
    1.6933   -1.9635    0.0000 C   0  0  0  0  0  0  0  0  0 12  0  0
   -0.2158   -2.5838    0.0000 C   0  0  0  0  0  0  0  0  0 13  0  0
    2.9924   -2.7135    0.0000 H   0  0  0  0  0  0  0  0  0  0  0  0
    1.1073   -3.3443    0.0000 H   0  0  0  0  0  0  0  0  0  0  0  0
    2.4433   -0.6645    0.0000 H   0  0  0  0  0  0  0  0  0  0  0  0
   -0.8259   -3.9542    0.0000 H   0  0  0  0  0  0  0  0  0  0  0  0
    1.0699   -3.3564    0.0000 H   0  0  0  0  0  0  0  0  0  0  0  0
   -1.6503   -2.1453    0.0000 H   0  0  0  0  0  0  0  0  0  0  0  0
  1  2  2  0
  1  3  1  0
  1  4  1  0
  3  5  1  0
  3  6  1  0
  4  7  1  0
  4  8  1  0
  5  9  1  0
  5 10  2  0
  6 11  1  0
  6 12  1  0
  6 13  1  0
  7 14  1  0
  7 15  1  0
  7 16  1  0
  8 17  1  0
  8 18  1  0
  8 19  1  0
  9 20  1  0
 14 21  1  0
 14 22  1  0
 14 23  1  0
 17 24  1  0
 17 25  1  0
 17 26  1  0
 20 27  2  0
 28 20  1  0
 21 29  1  0
 21 30  1  0
 21 31  1  0
 24 32  1  0
 24 33  1  0
 24 34  1  0
 27 35  1  0
 36 27  1  0
 37 28  2  0
 28 38  1  0
 29 39  1  0
 29 40  1  0
 29 41  1  0
 32 42  1  0
 32 43  1  0
 32 44  1  0
 35 45  2  0
 35 46  1  0
 47 36  1  0
 45 37  1  0
 37 48  1  0
 45 49  1  0
 46 47  1  0
 46 50  1  0
 46 51  1  0
 47 52  1  0
 47 53  1  0
 52 54  1  0
 52 55  1  0
 52 56  1  0
 53 57  1  0
 53 58  1  0
 53 59  1  0
M  END
>  <SMILES>  (1) 
CCCCN(CCCC)S(=O)N(C)C(=O)Oc1cccc2c1OC(C)(C)C2

>  <Molecular Weight>  (1) 
396.6

>  <Substrate_ID>  (1) 
MOL0078

>  <Substrate>  (1) 


>  <Substrate_SMILES>  (1) 
CCCCN(CCCC)SN(C)C(=O)Oc1cccc2c1OC(C)(C)C2

>  <Reaction>  (1) 
S-oxidation

>  <Score>  (1) 
0.441

>  <Reaction_Score>  (1) 
0.2277

>  <Bond_Score>  (1) 
0.8541

>  <Rank>  (1) 
1

>  <Subtype>  (1) 
1A2, 2A6, 2B6, 2C8, 2C9, 2C19, 2D6, 3A4

>  <Subtype_Scores>  (1) 
[1A2] SOM_score: 0.8077, Reaction_score: 0.2277, Score: 0.4289
[2A6] SOM_score: 0.5055, Reaction_score: 0.2277, Score: 0.3393
[2B6] SOM_score: 0.8068, Reaction_score: 0.2277, Score: 0.4287
[2C8] SOM_score: 0.6595, Reaction_score: 0.2277, Score: 0.3876
[2C9] SOM_score: 0.7584, Reaction_score: 0.2277, Score: 0.4156
[2C19] SOM_score: 0.8149, Reaction_score: 0.2277, Score: 0.4308
[2D6] SOM_score: 0.8053, Reaction_score: 0.2277, Score: 0.4282
[3A4] SOM_score: 0.8541, Reaction_score: 0.2277, Score: 0.4410


$$$$

     RDKit          2D

 55 56  0  0  0  0  0  0  0  0999 V2000
    4.1831    6.5422    0.0000 S   0  0  0  0  0  0  0  0  0  1  0  0
    3.8712    5.0750    0.0000 N   0  0  0  0  0  0  0  0  0  5  0  0
    2.4446    4.6115    0.0000 C   0  0  0  0  0  0  0  0  0 16  0  0
    5.6097    7.0058    0.0000 N   0  0  0  0  0  0  0  0  0  6  0  0
    5.9215    8.4730    0.0000 C   0  0  0  0  0  0  0  0  0 17  0  0
    6.7244    6.0021    0.0000 C   0  0  0  0  0  0  0  0  0 21  0  0
    6.2334    9.9402    0.0000 C   0  0  0  0  0  0  0  0  0 18  0  0
    4.4543    8.7849    0.0000 H   0  0  0  0  0  0  0  0  0  0  0  0
    7.3887    8.1611    0.0000 H   0  0  0  0  0  0  0  0  0  0  0  0
    7.8391    4.9984    0.0000 C   0  0  0  0  0  0  0  0  0 22  0  0
    5.7207    4.8874    0.0000 H   0  0  0  0  0  0  0  0  0  0  0  0
    7.7281    7.1168    0.0000 H   0  0  0  0  0  0  0  0  0  0  0  0
    6.5453   11.4074    0.0000 C   0  0  0  0  0  0  0  0  0 19  0  0
    4.7662   10.2521    0.0000 H   0  0  0  0  0  0  0  0  0  0  0  0
    7.7006    9.6283    0.0000 H   0  0  0  0  0  0  0  0  0  0  0  0
    8.9538    3.9947    0.0000 C   0  0  0  0  0  0  0  0  0 23  0  0
    6.8354    3.8837    0.0000 H   0  0  0  0  0  0  0  0  0  0  0  0
    8.8428    6.1131    0.0000 H   0  0  0  0  0  0  0  0  0  0  0  0
    6.8571   12.8747    0.0000 C   0  0  0  0  0  0  0  0  0 20  0  0
    8.0125   11.0956    0.0000 H   0  0  0  0  0  0  0  0  0  0  0  0
    5.0780   11.7193    0.0000 H   0  0  0  0  0  0  0  0  0  0  0  0
   10.0685    2.9910    0.0000 C   0  0  0  0  0  0  0  0  0 24  0  0
    9.9575    5.1094    0.0000 H   0  0  0  0  0  0  0  0  0  0  0  0
    7.9501    2.8800    0.0000 H   0  0  0  0  0  0  0  0  0  0  0  0
    7.1690   14.3419    0.0000 H   0  0  0  0  0  0  0  0  0  0  0  0
    5.3899   13.1865    0.0000 H   0  0  0  0  0  0  0  0  0  0  0  0
    8.3243   12.5628    0.0000 H   0  0  0  0  0  0  0  0  0  0  0  0
   11.1832    1.9873    0.0000 H   0  0  0  0  0  0  0  0  0  0  0  0
    9.0648    1.8763    0.0000 H   0  0  0  0  0  0  0  0  0  0  0  0
   11.0722    4.1057    0.0000 H   0  0  0  0  0  0  0  0  0  0  0  0
    2.1328    3.1443    0.0000 O   0  0  0  0  0  0  0  0  0  3  0  0
    1.3299    5.6152    0.0000 O   0  0  0  0  0  0  0  0  0  4  0  0
    0.7062    2.6807    0.0000 C   0  0  0  0  0  0  0  0  0 15  0  0
    0.3943    1.2135    0.0000 C   0  0  0  0  0  0  0  0  0 10  0  0
   -0.4086    3.6844    0.0000 C   0  0  0  0  0  0  0  0  0 26  0  0
   -1.0323    0.7500    0.0000 C   0  0  0  0  0  0  0  0  0  9  0  0
    1.2760    0.0000    0.0000 O   0  0  0  0  0  0  0  0  0  2  0  0
   -1.8351    3.2209    0.0000 C   0  0  0  0  0  0  0  0  0  7  0  0
   -0.0967    5.1517    0.0000 H   0  0  0  0  0  0  0  0  0  0  0  0
   -2.1470    1.7537    0.0000 C   0  0  0  0  0  0  0  0  0  8  0  0
   -1.0323   -0.7500    0.0000 C   0  0  0  0  0  0  0  0  0 14  0  0
    0.3943   -1.2135    0.0000 C   0  0  0  0  0  0  0  0  0 11  0  0
   -2.9499    4.2246    0.0000 H   0  0  0  0  0  0  0  0  0  0  0  0
   -3.5736    1.2902    0.0000 H   0  0  0  0  0  0  0  0  0  0  0  0
   -1.5207   -2.1683    0.0000 H   0  0  0  0  0  0  0  0  0  0  0  0
   -2.5241   -0.5932    0.0000 H   0  0  0  0  0  0  0  0  0  0  0  0
    1.6933   -1.9635    0.0000 C   0  0  0  0  0  0  0  0  0 12  0  0
   -0.2158   -2.5838    0.0000 C   0  0  0  0  0  0  0  0  0 13  0  0
    2.9924   -2.7135    0.0000 H   0  0  0  0  0  0  0  0  0  0  0  0
    1.3819   -2.6973    0.0000 H   0  0  0  0  0  0  0  0  0  0  0  0
    2.4433   -0.6645    0.0000 H   0  0  0  0  0  0  0  0  0  0  0  0
   -0.8259   -3.9542    0.0000 H   0  0  0  0  0  0  0  0  0  0  0  0
    0.4675   -2.9944    0.0000 H   0  0  0  0  0  0  0  0  0  0  0  0
   -1.6503   -2.1453    0.0000 H   0  0  0  0  0  0  0  0  0  0  0  0
    4.9859    4.0713    0.0000 H   0  0  0  0  0  0  0  0  0  0  0  0
  1  2  1  0
  2  3  1  0
  1  4  1  0
  4  5  1  0
  4  6  1  0
  5  7  1  0
  5  8  1  0
  5  9  1  0
  6 10  1  0
  6 11  1  0
  6 12  1  0
  7 13  1  0
  7 14  1  0
  7 15  1  0
 10 16  1  0
 10 17  1  0
 10 18  1  0
 13 19  1  0
 13 20  1  0
 13 21  1  0
 16 22  1  0
 16 23  1  0
 16 24  1  0
 19 25  1  0
 19 26  1  0
 19 27  1  0
 22 28  1  0
 22 29  1  0
 22 30  1  0
  3 31  1  0
  3 32  2  0
 31 33  1  0
 33 34  2  0
 35 33  1  0
 34 36  1  0
 37 34  1  0
 38 35  2  0
 35 39  1  0
 36 40  2  0
 36 41  1  0
 42 37  1  0
 40 38  1  0
 38 43  1  0
 40 44  1  0
 41 42  1  0
 41 45  1  0
 41 46  1  0
 42 47  1  0
 42 48  1  0
 47 49  1  0
 47 50  1  0
 47 51  1  0
 48 52  1  0
 48 53  1  0
 48 54  1  0
  2 55  1  0
M  END
>  <SMILES>  (2) 
CCCCN(CCCC)SNC(=O)Oc1cccc2c1OC(C)(C)C2

>  <Molecular Weight>  (2) 
366.5

>  <Substrate_ID>  (2) 
MOL0078

>  <Substrate>  (2) 


>  <Substrate_SMILES>  (2) 
CCCCN(CCCC)SN(C)C(=O)Oc1cccc2c1OC(C)(C)C2

>  <Reaction>  (2) 
N-demethylation_(R-N(CR)CH3)

>  <Score>  (2) 
0.4182

>  <Reaction_Score>  (2) 
0.4061

>  <Bond_Score>  (2) 
0.4307

>  <Rank>  (2) 
2

>  <Subtype>  (2) 
2C8, 3A4

>  <Subtype_Scores>  (2) 
[2C8] SOM_score: 0.2131, Reaction_score: 0.4061, Score: 0.2942
[3A4] SOM_score: 0.4307, Reaction_score: 0.4061, Score: 0.4182


$$$$

     RDKit          2D

 59 60  0  0  0  0  0  0  0  0999 V2000
    0.3943    1.2135    0.0000 C   0  0  0  0  0  0  0  0  0  9  0  0
    1.2760    0.0000    0.0000 C   0  0  0  0  0  0  0  0  0 14  0  0
    2.3907    1.0037    0.0000 O   0  0  0  0  0  0  0  0  0 27  0  0
    0.3943   -1.2135    0.0000 C   0  0  0  0  0  0  0  0  0 11  0  0
   -1.0323    0.7500    0.0000 C   0  0  0  0  0  0  0  0  0 10  0  0
    0.7062    2.6807    0.0000 C   0  0  0  0  0  0  0  0  0  8  0  0
   -2.1470    1.7537    0.0000 C   0  0  0  0  0  0  0  0  0 15  0  0
   -1.0323   -0.7500    0.0000 O   0  0  0  0  0  0  0  0  0  2  0  0
   -0.4086    3.6844    0.0000 C   0  0  0  0  0  0  0  0  0  7  0  0
    2.1328    3.1443    0.0000 H   0  0  0  0  0  0  0  0  0  0  0  0
   -3.5736    1.2902    0.0000 O   0  0  0  0  0  0  0  0  0  3  0  0
   -1.8351    3.2209    0.0000 C   0  0  0  0  0  0  0  0  0 26  0  0
   -0.0967    5.1517    0.0000 H   0  0  0  0  0  0  0  0  0  0  0  0
   -4.6883    2.2939    0.0000 C   0  0  0  0  0  0  0  0  0 16  0  0
   -2.9499    4.2246    0.0000 H   0  0  0  0  0  0  0  0  0  0  0  0
   -6.1149    1.8303    0.0000 N   0  0  0  0  0  0  0  0  0  5  0  0
   -4.3764    3.7611    0.0000 O   0  0  0  0  0  0  0  0  0  4  0  0
   -6.4268    0.3631    0.0000 S   0  0  0  0  0  0  0  0  0  1  0  0
   -7.2296    2.8340    0.0000 C   0  0  0  0  0  0  0  0  0 25  0  0
   -7.8533   -0.1004    0.0000 N   0  0  0  0  0  0  0  0  0  6  0  0
   -8.3443    3.8377    0.0000 H   0  0  0  0  0  0  0  0  0  0  0  0
   -7.8312    2.3111    0.0000 H   0  0  0  0  0  0  0  0  0  0  0  0
   -6.2259    3.9488    0.0000 H   0  0  0  0  0  0  0  0  0  0  0  0
   -8.9681    0.9033    0.0000 C   0  0  0  0  0  0  0  0  0 17  0  0
   -8.1652   -1.5676    0.0000 C   0  0  0  0  0  0  0  0  0 21  0  0
  -10.0828    1.9070    0.0000 C   0  0  0  0  0  0  0  0  0 18  0  0
   -8.5108    1.5563    0.0000 H   0  0  0  0  0  0  0  0  0  0  0  0
   -9.9718   -0.2114    0.0000 H   0  0  0  0  0  0  0  0  0  0  0  0
   -8.4771   -3.0348    0.0000 C   0  0  0  0  0  0  0  0  0 22  0  0
   -6.6980   -1.8795    0.0000 H   0  0  0  0  0  0  0  0  0  0  0  0
   -9.6324   -1.2558    0.0000 H   0  0  0  0  0  0  0  0  0  0  0  0
  -11.1975    2.9107    0.0000 C   0  0  0  0  0  0  0  0  0 19  0  0
   -9.0791    3.0217    0.0000 H   0  0  0  0  0  0  0  0  0  0  0  0
  -11.0865    0.7923    0.0000 H   0  0  0  0  0  0  0  0  0  0  0  0
   -8.7889   -4.5021    0.0000 C   0  0  0  0  0  0  0  0  0 23  0  0
   -9.9443   -2.7230    0.0000 H   0  0  0  0  0  0  0  0  0  0  0  0
   -7.0099   -3.3467    0.0000 H   0  0  0  0  0  0  0  0  0  0  0  0
  -12.3122    3.9144    0.0000 C   0  0  0  0  0  0  0  0  0 20  0  0
  -12.2012    1.7960    0.0000 H   0  0  0  0  0  0  0  0  0  0  0  0
  -10.1938    4.0254    0.0000 H   0  0  0  0  0  0  0  0  0  0  0  0
   -9.1008   -5.9693    0.0000 C   0  0  0  0  0  0  0  0  0 24  0  0
   -7.3217   -4.8139    0.0000 H   0  0  0  0  0  0  0  0  0  0  0  0
  -10.2562   -4.1902    0.0000 H   0  0  0  0  0  0  0  0  0  0  0  0
  -13.4269    4.9181    0.0000 H   0  0  0  0  0  0  0  0  0  0  0  0
  -11.3085    5.0291    0.0000 H   0  0  0  0  0  0  0  0  0  0  0  0
  -13.3159    2.7997    0.0000 H   0  0  0  0  0  0  0  0  0  0  0  0
   -9.4127   -7.4365    0.0000 H   0  0  0  0  0  0  0  0  0  0  0  0
  -10.5680   -5.6574    0.0000 H   0  0  0  0  0  0  0  0  0  0  0  0
   -7.6336   -6.2812    0.0000 H   0  0  0  0  0  0  0  0  0  0  0  0
    2.5047   -0.8603    0.0000 H   0  0  0  0  0  0  0  0  0  0  0  0
    1.6933   -1.9635    0.0000 C   0  0  0  0  0  0  0  0  0 12  0  0
   -0.2158   -2.5838    0.0000 C   0  0  0  0  0  0  0  0  0 13  0  0
    2.9924   -2.7135    0.0000 H   0  0  0  0  0  0  0  0  0  0  0  0
    1.1073   -3.3443    0.0000 H   0  0  0  0  0  0  0  0  0  0  0  0
    2.5961   -0.7656    0.0000 H   0  0  0  0  0  0  0  0  0  0  0  0
   -0.8259   -3.9542    0.0000 H   0  0  0  0  0  0  0  0  0  0  0  0
   -1.5861   -1.9737    0.0000 H   0  0  0  0  0  0  0  0  0  0  0  0
    1.0699   -3.3564    0.0000 H   0  0  0  0  0  0  0  0  0  0  0  0
    3.8173    0.5402    0.0000 H   0  0  0  0  0  0  0  0  0  0  0  0
  1  2  1  0
  2  3  1  0
  2  4  1  0
  5  1  2  0
  1  6  1  0
  7  5  1  0
  8  5  1  0
  6  9  2  0
  6 10  1  0
 11  7  1  0
 12  7  2  0
  4  8  1  0
  9 12  1  0
  9 13  1  0
 14 11  1  0
 12 15  1  0
 16 14  1  0
 14 17  2  0
 18 16  1  0
 16 19  1  0
 18 20  1  0
 19 21  1  0
 19 22  1  0
 19 23  1  0
 20 24  1  0
 20 25  1  0
 24 26  1  0
 24 27  1  0
 24 28  1  0
 25 29  1  0
 25 30  1  0
 25 31  1  0
 26 32  1  0
 26 33  1  0
 26 34  1  0
 29 35  1  0
 29 36  1  0
 29 37  1  0
 32 38  1  0
 32 39  1  0
 32 40  1  0
 35 41  1  0
 35 42  1  0
 35 43  1  0
 38 44  1  0
 38 45  1  0
 38 46  1  0
 41 47  1  0
 41 48  1  0
 41 49  1  0
  2 50  1  0
  4 51  1  0
  4 52  1  0
 51 53  1  0
 51 54  1  0
 51 55  1  0
 52 56  1  0
 52 57  1  0
 52 58  1  0
  3 59  1  0
M  END
>  <SMILES>  (3) 
CCCCN(CCCC)SN(C)C(=O)Oc1cccc2c1OC(C)(C)C2O

>  <Molecular Weight>  (3) 
396.6

>  <Substrate_ID>  (3) 
MOL0078

>  <Substrate>  (3) 


>  <Substrate_SMILES>  (3) 
CCCCN(CCCC)SN(C)C(=O)Oc1cccc2c1OC(C)(C)C2

>  <Reaction>  (3) 
benzylic_hydroxylation_(c-CH2-CR),aliphatic hydroxylation

>  <Score>  (3) 
0.2937

>  <Reaction_Score>  (3) 
0.3031

>  <Bond_Score>  (3) 
0.2846

>  <Rank>  (3) 
3

>  <Subtype>  (3) 
3A4

>  <Subtype_Scores>  (3) 
[3A4] SOM_score: 0.2846, Reaction_score: 0.3031, Score: 0.2937


$$$$

     RDKit          2D

 31 32  0  0  0  0  0  0  0  0999 V2000
    3.8712    5.0750    0.0000 N   0  0  0  0  0  0  0  0  0  5  0  0
    2.4446    4.6115    0.0000 C   0  0  0  0  0  0  0  0  0 16  0  0
    4.1831    6.5422    0.0000 C   0  0  0  0  0  0  0  0  0 25  0  0
    2.1328    3.1443    0.0000 O   0  0  0  0  0  0  0  0  0  3  0  0
    1.3299    5.6152    0.0000 O   0  0  0  0  0  0  0  0  0  4  0  0
    4.4949    8.0095    0.0000 H   0  0  0  0  0  0  0  0  0  0  0  0
    5.6503    6.2304    0.0000 H   0  0  0  0  0  0  0  0  0  0  0  0
    2.7158    6.8541    0.0000 H   0  0  0  0  0  0  0  0  0  0  0  0
    0.7062    2.6807    0.0000 C   0  0  0  0  0  0  0  0  0 15  0  0
    0.3943    1.2135    0.0000 C   0  0  0  0  0  0  0  0  0 10  0  0
   -0.4086    3.6844    0.0000 C   0  0  0  0  0  0  0  0  0 26  0  0
   -1.0323    0.7500    0.0000 C   0  0  0  0  0  0  0  0  0  9  0  0
    1.2760    0.0000    0.0000 O   0  0  0  0  0  0  0  0  0  2  0  0
   -1.8351    3.2209    0.0000 C   0  0  0  0  0  0  0  0  0  7  0  0
   -0.0967    5.1517    0.0000 H   0  0  0  0  0  0  0  0  0  0  0  0
   -2.1470    1.7537    0.0000 C   0  0  0  0  0  0  0  0  0  8  0  0
   -1.0323   -0.7500    0.0000 C   0  0  0  0  0  0  0  0  0 14  0  0
    0.3943   -1.2135    0.0000 C   0  0  0  0  0  0  0  0  0 11  0  0
   -2.9499    4.2246    0.0000 H   0  0  0  0  0  0  0  0  0  0  0  0
   -3.5736    1.2902    0.0000 H   0  0  0  0  0  0  0  0  0  0  0  0
   -1.5207   -2.1683    0.0000 H   0  0  0  0  0  0  0  0  0  0  0  0
   -2.5241   -0.5932    0.0000 H   0  0  0  0  0  0  0  0  0  0  0  0
    1.6933   -1.9635    0.0000 C   0  0  0  0  0  0  0  0  0 12  0  0
   -0.2158   -2.5838    0.0000 C   0  0  0  0  0  0  0  0  0 13  0  0
    2.9924   -2.7135    0.0000 H   0  0  0  0  0  0  0  0  0  0  0  0
    1.3819   -2.6973    0.0000 H   0  0  0  0  0  0  0  0  0  0  0  0
    2.4433   -0.6645    0.0000 H   0  0  0  0  0  0  0  0  0  0  0  0
   -0.8259   -3.9542    0.0000 H   0  0  0  0  0  0  0  0  0  0  0  0
    0.4675   -2.9944    0.0000 H   0  0  0  0  0  0  0  0  0  0  0  0
   -1.6503   -2.1453    0.0000 H   0  0  0  0  0  0  0  0  0  0  0  0
    4.9859    4.0713    0.0000 H   0  0  0  0  0  0  0  0  0  0  0  0
  1  2  1  0
  1  3  1  0
  2  4  1  0
  2  5  2  0
  3  6  1  0
  3  7  1  0
  3  8  1  0
  4  9  1  0
  9 10  2  0
 11  9  1  0
 10 12  1  0
 13 10  1  0
 14 11  2  0
 11 15  1  0
 12 16  2  0
 12 17  1  0
 18 13  1  0
 16 14  1  0
 14 19  1  0
 16 20  1  0
 17 18  1  0
 17 21  1  0
 17 22  1  0
 18 23  1  0
 18 24  1  0
 23 25  1  0
 23 26  1  0
 23 27  1  0
 24 28  1  0
 24 29  1  0
 24 30  1  0
  1 31  1  0
M  END
>  <SMILES>  (4) 
CNC(=O)Oc1cccc2c1OC(C)(C)C2

>  <Molecular Weight>  (4) 
221.3

>  <Substrate_ID>  (4) 
MOL0078

>  <Substrate>  (4) 


>  <Substrate_SMILES>  (4) 
CCCCN(CCCC)SN(C)C(=O)Oc1cccc2c1OC(C)(C)C2

>  <Reaction>  (4) 
hydrolysis_(S-N)

>  <Score>  (4) 
0.1765

>  <Reaction_Score>  (4) 
0.045

>  <Bond_Score>  (4) 
0.6932

>  <Rank>  (4) 
4

>  <Subtype>  (4) 
1A2, 2A6, 2B6, 2C8, 2C9, 2C19, 2D6, 3A4

>  <Subtype_Scores>  (4) 
[1A2] SOM_score: 0.6226, Reaction_score: 0.0450, Score: 0.1673
[2A6] SOM_score: 0.3631, Reaction_score: 0.0450, Score: 0.1278
[2B6] SOM_score: 0.6932, Reaction_score: 0.0450, Score: 0.1765
[2C8] SOM_score: 0.6003, Reaction_score: 0.0450, Score: 0.1643
[2C9] SOM_score: 0.4948, Reaction_score: 0.0450, Score: 0.1491
[2C19] SOM_score: 0.5719, Reaction_score: 0.0450, Score: 0.1603
[2D6] SOM_score: 0.5298, Reaction_score: 0.0450, Score: 0.1543
[3A4] SOM_score: 0.6424, Reaction_score: 0.0450, Score: 0.1699


$$$$

     RDKit          2D

 28 27  0  0  0  0  0  0  0  0999 V2000
   -1.5000    0.0000    0.0000 N   0  0  0  0  0  0  0  0  0  6  0  0
    0.0000    0.0000    0.0000 C   0  0  0  0  0  0  0  0  0 17  0  0
   -2.2500   -1.2990    0.0000 C   0  0  0  0  0  0  0  0  0 21  0  0
    1.5000    0.0000    0.0000 C   0  0  0  0  0  0  0  0  0 18  0  0
    0.0000    1.5000    0.0000 H   0  0  0  0  0  0  0  0  0  0  0  0
   -0.0000   -1.5000    0.0000 H   0  0  0  0  0  0  0  0  0  0  0  0
   -3.0000   -2.5981    0.0000 C   0  0  0  0  0  0  0  0  0 22  0  0
   -0.9510   -2.0490    0.0000 H   0  0  0  0  0  0  0  0  0  0  0  0
   -3.5490   -0.5490    0.0000 H   0  0  0  0  0  0  0  0  0  0  0  0
    3.0000    0.0000    0.0000 C   0  0  0  0  0  0  0  0  0 19  0  0
    1.5000   -1.5000    0.0000 H   0  0  0  0  0  0  0  0  0  0  0  0
    1.5000    1.5000    0.0000 H   0  0  0  0  0  0  0  0  0  0  0  0
   -3.7500   -3.8971    0.0000 C   0  0  0  0  0  0  0  0  0 23  0  0
   -1.7010   -3.3481    0.0000 H   0  0  0  0  0  0  0  0  0  0  0  0
   -4.2990   -1.8481    0.0000 H   0  0  0  0  0  0  0  0  0  0  0  0
    4.5000    0.0000    0.0000 C   0  0  0  0  0  0  0  0  0 20  0  0
    3.0000    1.5000    0.0000 H   0  0  0  0  0  0  0  0  0  0  0  0
    3.0000   -1.5000    0.0000 H   0  0  0  0  0  0  0  0  0  0  0  0
   -4.5000   -5.1962    0.0000 C   0  0  0  0  0  0  0  0  0 24  0  0
   -5.0490   -3.1471    0.0000 H   0  0  0  0  0  0  0  0  0  0  0  0
   -2.4510   -4.6471    0.0000 H   0  0  0  0  0  0  0  0  0  0  0  0
    6.0000    0.0000    0.0000 H   0  0  0  0  0  0  0  0  0  0  0  0
    4.5000   -1.5000    0.0000 H   0  0  0  0  0  0  0  0  0  0  0  0
    4.5000    1.5000    0.0000 H   0  0  0  0  0  0  0  0  0  0  0  0
   -5.2500   -6.4952    0.0000 H   0  0  0  0  0  0  0  0  0  0  0  0
   -3.2010   -5.9462    0.0000 H   0  0  0  0  0  0  0  0  0  0  0  0
   -5.7990   -4.4462    0.0000 H   0  0  0  0  0  0  0  0  0  0  0  0
   -2.2500    1.2990    0.0000 H   0  0  0  0  0  0  0  0  0  0  0  0
  1  2  1  0
  1  3  1  0
  2  4  1  0
  2  5  1  0
  2  6  1  0
  3  7  1  0
  3  8  1  0
  3  9  1  0
  4 10  1  0
  4 11  1  0
  4 12  1  0
  7 13  1  0
  7 14  1  0
  7 15  1  0
 10 16  1  0
 10 17  1  0
 10 18  1  0
 13 19  1  0
 13 20  1  0
 13 21  1  0
 16 22  1  0
 16 23  1  0
 16 24  1  0
 19 25  1  0
 19 26  1  0
 19 27  1  0
  1 28  1  0
M  END
>  <SMILES>  (5) 
CCCCNCCCC

>  <Molecular Weight>  (5) 
129.2

>  <Substrate_ID>  (5) 
MOL0078

>  <Substrate>  (5) 


>  <Substrate_SMILES>  (5) 
CCCCN(CCCC)SN(C)C(=O)Oc1cccc2c1OC(C)(C)C2

>  <Reaction>  (5) 
hydrolysis_(S-N)

>  <Score>  (5) 
0.1085

>  <Reaction_Score>  (5) 
0.0275

>  <Bond_Score>  (5) 
0.4282

>  <Rank>  (5) 
5

>  <Subtype>  (5) 
1A2, 2B6, 2C8, 2C19, 2D6, 3A4

>  <Subtype_Scores>  (5) 
[1A2] SOM_score: 0.3574, Reaction_score: 0.0275, Score: 0.0991
[2B6] SOM_score: 0.2712, Reaction_score: 0.0275, Score: 0.0864
[2C8] SOM_score: 0.2725, Reaction_score: 0.0275, Score: 0.0866
[2C19] SOM_score: 0.2727, Reaction_score: 0.0275, Score: 0.0866
[2D6] SOM_score: 0.2366, Reaction_score: 0.0275, Score: 0.0807
[3A4] SOM_score: 0.4282, Reaction_score: 0.0275, Score: 0.1085


$$$$
