
     RDKit          2D

 38 38  0  0  0  0  0  0  0  0999 V2000
    5.2500   -1.2990    0.0000 C   0  0  0  0  0  0  0  0  0 14  0  0
    6.7500   -1.2990    0.0000 O   0  0  0  0  0  0  0  0  0  3  0  0
    3.7500   -1.2990    0.0000 C   0  0  0  0  0  0  0  0  0 16  0  0
    5.2500   -2.7990    0.0000 H   0  0  0  0  0  0  0  0  0  0  0  0
    5.5440   -0.1201    0.0000 H   0  0  0  0  0  0  0  0  0  0  0  0
    3.0000    0.0000    0.0000 N   0  0  0  0  0  0  0  0  0  5  0  0
    3.1639   -2.6798    0.0000 O   0  0  0  0  0  0  0  0  0  2  0  0
    3.7500    1.2990    0.0000 C   0  0  0  0  0  0  0  0  0 20  0  0
    1.5000    0.0000    0.0000 C   0  0  0  0  0  0  0  0  0 19  0  0
    2.4510    2.0490    0.0000 C   0  0  0  0  0  0  0  0  0 15  0  0
    5.0490    0.5490    0.0000 C   0  0  0  0  0  0  0  0  0 10  0  0
    4.5000    2.5981    0.0000 H   0  0  0  0  0  0  0  0  0  0  0  0
    0.7500   -1.2990    0.0000 C   0  0  0  0  0  0  0  0  0 17  0  0
    0.7500    1.2990    0.0000 C   0  0  0  0  0  0  0  0  0 18  0  0
    2.6338    3.5379    0.0000 O   0  0  0  0  0  0  0  0  0  1  0  0
    1.1519    1.2990    0.0000 O   0  0  0  0  0  0  0  0  0  4  0  0
    6.3481   -0.2010    0.0000 H   0  0  0  0  0  0  0  0  0  0  0  0
    5.7990    1.8481    0.0000 H   0  0  0  0  0  0  0  0  0  0  0  0
    4.6357   -0.8929    0.0000 H   0  0  0  0  0  0  0  0  0  0  0  0
    1.5000   -2.5981    0.0000 C   0  0  0  0  0  0  0  0  0  8  0  0
   -0.7500   -1.2990    0.0000 C   0  0  0  0  0  0  0  0  0 12  0  0
   -0.7500    1.2990    0.0000 C   0  0  0  0  0  0  0  0  0 13  0  0
    1.5000    2.5981    0.0000 C   0  0  0  0  0  0  0  0  0  9  0  0
   -0.1471    2.0490    0.0000 C   0  0  0  0  0  0  0  0  0  7  0  0
    2.2500   -3.8971    0.0000 H   0  0  0  0  0  0  0  0  0  0  0  0
    0.2010   -3.3481    0.0000 H   0  0  0  0  0  0  0  0  0  0  0  0
    2.8808   -2.0120    0.0000 H   0  0  0  0  0  0  0  0  0  0  0  0
   -1.5000    0.0000    0.0000 C   0  0  0  0  0  0  0  0  0 11  0  0
   -1.5000   -2.5981    0.0000 H   0  0  0  0  0  0  0  0  0  0  0  0
   -1.6528    2.4970    0.0000 H   0  0  0  0  0  0  0  0  0  0  0  0
    2.0861    3.9788    0.0000 H   0  0  0  0  0  0  0  0  0  0  0  0
    0.3021    3.5008    0.0000 H   0  0  0  0  0  0  0  0  0  0  0  0
    2.5790    1.5560    0.0000 H   0  0  0  0  0  0  0  0  0  0  0  0
   -1.3450    2.9518    0.0000 H   0  0  0  0  0  0  0  0  0  0  0  0
   -1.1892    0.9701    0.0000 H   0  0  0  0  0  0  0  0  0  0  0  0
    0.4389    3.4298    0.0000 H   0  0  0  0  0  0  0  0  0  0  0  0
   -3.0000    0.0000    0.0000 H   0  0  0  0  0  0  0  0  0  0  0  0
    7.5000   -2.5981    0.0000 H   0  0  0  0  0  0  0  0  0  0  0  0
  1  2  1  0
  3  1  1  0
  1  4  1  0
  1  5  1  0
  6  3  1  0
  3  7  2  0
  8  6  1  0
  6  9  1  0
 10  8  1  0
  8 11  1  0
  8 12  1  1
  9 13  2  0
 14  9  1  0
 15 10  2  0
 10 16  1  0
 11 17  1  0
 11 18  1  0
 11 19  1  0
 13 20  1  0
 13 21  1  0
 22 14  2  0
 14 23  1  0
 16 24  1  0
 20 25  1  0
 20 26  1  0
 20 27  1  0
 21 28  2  0
 21 29  1  0
 28 22  1  0
 22 30  1  0
 23 31  1  0
 23 32  1  0
 23 33  1  0
 24 34  1  0
 24 35  1  0
 24 36  1  0
 28 37  1  0
  2 38  1  0
M  END
>  <SMILES>  (1) 
COC(=O)C(C)N(C(=O)CO)c1c(C)cccc1C

>  <Molecular Weight>  (1) 
265.3

>  <Substrate_ID>  (1) 
MOL0085

>  <Substrate>  (1) 


>  <Substrate_SMILES>  (1) 
COCC(=O)N(c1c(C)cccc1C)C(C)C(=O)OC

>  <Reaction>  (1) 
O-demethylation

>  <Score>  (1) 
0.4421

>  <Reaction_Score>  (1) 
0.4977

>  <Bond_Score>  (1) 
0.3926

>  <Rank>  (1) 
1

>  <Subtype>  (1) 
1A2, 2C8, 2D6, 3A4

>  <Subtype_Scores>  (1) 
[1A2] SOM_score: 0.3147, Reaction_score: 0.4977, Score: 0.3958
[2C8] SOM_score: 0.1994, Reaction_score: 0.4977, Score: 0.3151
[2D6] SOM_score: 0.2559, Reaction_score: 0.4977, Score: 0.3569
[3A4] SOM_score: 0.3926, Reaction_score: 0.4977, Score: 0.4421


$$$$
