
     RDKit          2D

 75 78  0  0  0  0  0  0  0  0999 V2000
    3.0000    0.0000    0.0000 C   0  0  0  0  0  0  0  0  0 35  0  0
    4.5000   -0.0000    0.0000 C   0  0  0  0  0  0  0  0  0  4  0  0
    6.0000   -0.0000    0.0000 O   0  0  0  0  0  0  0  0  0 36  0  0
    1.5000    0.0000    0.0000 C   0  0  0  0  0  0  0  0  0 32  0  0
    3.0000   -1.5000    0.0000 C   0  0  0  0  0  0  0  0  0  5  0  0
    3.0000    1.5000    0.0000 C   0  0  0  0  0  0  0  0  0  6  0  0
    0.7500   -1.2990    0.0000 C   0  0  0  0  0  0  0  0  0 19  0  0
    0.7500    1.2990    0.0000 C   0  0  0  0  0  0  0  0  0 20  0  0
    3.0000   -3.0000    0.0000 H   0  0  0  0  0  0  0  0  0  0  0  0
    4.4888   -1.6828    0.0000 H   0  0  0  0  0  0  0  0  0  0  0  0
    2.1406   -1.7143    0.0000 H   0  0  0  0  0  0  0  0  0  0  0  0
    3.0000    3.0000    0.0000 H   0  0  0  0  0  0  0  0  0  0  0  0
    4.4888    1.6828    0.0000 H   0  0  0  0  0  0  0  0  0  0  0  0
    2.1406    1.7143    0.0000 H   0  0  0  0  0  0  0  0  0  0  0  0
   -0.7500   -1.2990    0.0000 C   0  0  0  0  0  0  0  0  0 13  0  0
    1.1929   -2.0661    0.0000 H   0  0  0  0  0  0  0  0  0  0  0  0
   -0.7500    1.2990    0.0000 C   0  0  0  0  0  0  0  0  0 14  0  0
    1.1929    2.0661    0.0000 H   0  0  0  0  0  0  0  0  0  0  0  0
   -1.5000    0.0000    0.0000 C   0  0  0  0  0  0  0  0  0 29  0  0
   -1.5000   -2.5981    0.0000 H   0  0  0  0  0  0  0  0  0  0  0  0
   -1.5000    2.5981    0.0000 H   0  0  0  0  0  0  0  0  0  0  0  0
   -3.0000    0.0000    0.0000 C   0  0  0  0  0  0  0  0  0 28  0  0
   -3.7500   -1.2990    0.0000 O   0  0  0  0  0  0  0  0  0  1  0  0
   -3.7500    1.2990    0.0000 C   0  0  0  0  0  0  0  0  0 22  0  0
   -4.5000    2.5981    0.0000 C   0  0  0  0  0  0  0  0  0 21  0  0
   -5.0490    0.5490    0.0000 H   0  0  0  0  0  0  0  0  0  0  0  0
   -2.4510    2.0490    0.0000 H   0  0  0  0  0  0  0  0  0  0  0  0
   -5.2500    3.8971    0.0000 C   0  0  0  0  0  0  0  0  0 25  0  0
   -3.2010    3.3481    0.0000 H   0  0  0  0  0  0  0  0  0  0  0  0
   -5.7990    1.8481    0.0000 H   0  0  0  0  0  0  0  0  0  0  0  0
   -6.0000    5.1962    0.0000 N   0  0  0  0  0  0  0  0  0  3  0  0
   -6.4479    2.9944    0.0000 H   0  0  0  0  0  0  0  0  0  0  0  0
   -3.8692    4.4832    0.0000 H   0  0  0  0  0  0  0  0  0  0  0  0
   -5.2500    6.4952    0.0000 C   0  0  0  0  0  0  0  0  0 26  0  0
   -7.5000    5.1962    0.0000 C   0  0  0  0  0  0  0  0  0 27  0  0
   -6.0000    7.7942    0.0000 C   0  0  0  0  0  0  0  0  0 23  0  0
   -3.9920    7.3121    0.0000 H   0  0  0  0  0  0  0  0  0  0  0  0
   -3.9920    5.6783    0.0000 H   0  0  0  0  0  0  0  0  0  0  0  0
   -8.2500    6.4952    0.0000 C   0  0  0  0  0  0  0  0  0 24  0  0
   -7.4215    3.6982    0.0000 H   0  0  0  0  0  0  0  0  0  0  0  0
   -8.9095    4.6831    0.0000 H   0  0  0  0  0  0  0  0  0  0  0  0
   -7.5000    7.7942    0.0000 C   0  0  0  0  0  0  0  0  0 33  0  0
   -5.8953    9.2906    0.0000 H   0  0  0  0  0  0  0  0  0  0  0  0
   -4.5384    8.1316    0.0000 H   0  0  0  0  0  0  0  0  0  0  0  0
   -9.3991    5.5310    0.0000 H   0  0  0  0  0  0  0  0  0  0  0  0
   -9.3991    7.4594    0.0000 H   0  0  0  0  0  0  0  0  0  0  0  0
   -8.9095    8.3073    0.0000 O   0  0  0  0  0  0  0  0  0  2  0  0
   -7.1397    8.6034    0.0000 H   0  0  0  0  0  0  0  0  0  0  0  0
   -9.1700    9.7845    0.0000 C   0  0  0  0  0  0  0  0  0 34  0  0
   -7.6928   10.0449    0.0000 C   0  0  0  0  0  0  0  0  0 30  0  0
  -10.6472    9.5240    0.0000 C   0  0  0  0  0  0  0  0  0 31  0  0
   -9.4305   11.2617    0.0000 H   0  0  0  0  0  0  0  0  0  0  0  0
   -6.7286    8.8959    0.0000 C   0  0  0  0  0  0  0  0  0 15  0  0
   -7.1798   11.4545    0.0000 C   0  0  0  0  0  0  0  0  0 16  0  0
  -11.6114   10.6731    0.0000 C   0  0  0  0  0  0  0  0  0 17  0  0
  -11.1603    8.1145    0.0000 C   0  0  0  0  0  0  0  0  0 18  0  0
   -5.2514    9.1563    0.0000 C   0  0  0  0  0  0  0  0  0  9  0  0
   -6.8853    7.4041    0.0000 H   0  0  0  0  0  0  0  0  0  0  0  0
   -5.7026   11.7150    0.0000 C   0  0  0  0  0  0  0  0  0 10  0  0
   -8.1440   12.6035    0.0000 H   0  0  0  0  0  0  0  0  0  0  0  0
  -13.0886   10.4126    0.0000 C   0  0  0  0  0  0  0  0  0 11  0  0
  -11.0984   12.0826    0.0000 H   0  0  0  0  0  0  0  0  0  0  0  0
  -12.6375    7.8540    0.0000 C   0  0  0  0  0  0  0  0  0 12  0  0
  -10.1961    6.9654    0.0000 H   0  0  0  0  0  0  0  0  0  0  0  0
   -4.7384   10.5659    0.0000 C   0  0  0  0  0  0  0  0  0  7  0  0
   -4.0378    8.2747    0.0000 H   0  0  0  0  0  0  0  0  0  0  0  0
   -5.1895   13.1245    0.0000 H   0  0  0  0  0  0  0  0  0  0  0  0
  -13.6016    9.0031    0.0000 C   0  0  0  0  0  0  0  0  0  8  0  0
  -14.0528   11.5617    0.0000 H   0  0  0  0  0  0  0  0  0  0  0  0
  -13.1505    6.4444    0.0000 H   0  0  0  0  0  0  0  0  0  0  0  0
   -3.2612   10.8264    0.0000 H   0  0  0  0  0  0  0  0  0  0  0  0
  -15.0789    8.7426    0.0000 H   0  0  0  0  0  0  0  0  0  0  0  0
    4.6828    1.4888    0.0000 H   0  0  0  0  0  0  0  0  0  0  0  0
    4.6828   -1.4888    0.0000 H   0  0  0  0  0  0  0  0  0  0  0  0
    6.7500   -1.2990    0.0000 H   0  0  0  0  0  0  0  0  0  0  0  0
  1  2  1  0
  2  3  1  0
  4  1  1  0
  1  5  1  0
  1  6  1  0
  7  4  2  0
  4  8  1  0
  5  9  1  0
  5 10  1  0
  5 11  1  0
  6 12  1  0
  6 13  1  0
  6 14  1  0
 15  7  1  0
  7 16  1  0
  8 17  2  0
  8 18  1  0
 19 15  2  0
 15 20  1  0
 17 19  1  0
 17 21  1  0
 22 19  1  0
 23 22  2  0
 22 24  1  0
 24 25  1  0
 24 26  1  0
 24 27  1  0
 25 28  1  0
 25 29  1  0
 25 30  1  0
 28 31  1  0
 28 32  1  0
 28 33  1  0
 31 34  1  0
 35 31  1  0
 34 36  1  0
 34 37  1  0
 34 38  1  0
 39 35  1  0
 35 40  1  0
 35 41  1  0
 36 42  1  0
 36 43  1  0
 36 44  1  0
 42 39  1  0
 39 45  1  0
 39 46  1  0
 42 47  1  0
 42 48  1  0
 47 49  1  0
 49 50  1  0
 49 51  1  0
 49 52  1  0
 50 53  2  0
 54 50  1  0
 51 55  2  0
 56 51  1  0
 53 57  1  0
 53 58  1  0
 59 54  2  0
 54 60  1  0
 55 61  1  0
 55 62  1  0
 63 56  2  0
 56 64  1  0
 57 65  2  0
 57 66  1  0
 65 59  1  0
 59 67  1  0
 61 68  2  0
 61 69  1  0
 68 63  1  0
 63 70  1  0
 65 71  1  0
 68 72  1  0
  2 73  1  0
  2 74  1  0
  3 75  1  0
M  END
>  <SMILES>  (1) 
CC(C)(CO)c1ccc(C(=O)CCCN2CCC(OC(c3ccccc3)c3ccccc3)CC2)cc1

>  <Molecular Weight>  (1) 
485.7

>  <Substrate_ID>  (1) 
MOL0011

>  <Substrate>  (1) 


>  <Substrate_SMILES>  (1) 
CC(C)(C)c1ccc(C(=O)CCCN2CCC(OC(c3ccccc3)c3ccccc3)CC2)cc1

>  <Reaction>  (1) 
aliphatic_hydroxylation_(primary_carbon_next_to_quart_carbon),aliphatic hydroxylation

>  <Score>  (1) 
0.5011

>  <Reaction_Score>  (1) 
0.5021

>  <Bond_Score>  (1) 
0.5001

>  <Rank>  (1) 
1

>  <Subtype>  (1) 
2C8, 3A4

>  <Subtype_Scores>  (1) 
[2C8] SOM_score: 0.2984, Reaction_score: 0.5021, Score: 0.3871
[3A4] SOM_score: 0.5001, Reaction_score: 0.5021, Score: 0.5011


$$$$

     RDKit          2D

 41 43  0  0  0  0  0  0  0  0999 V2000
    1.5000   -0.0000    0.0000 N   0  0  0  0  0  0  0  0  0  3  0  0
    0.7500   -1.2990    0.0000 C   0  0  0  0  0  0  0  0  0 26  0  0
    0.7500    1.2990    0.0000 C   0  0  0  0  0  0  0  0  0 27  0  0
   -0.7500   -1.2990    0.0000 C   0  0  0  0  0  0  0  0  0 23  0  0
    2.1595   -1.8121    0.0000 H   0  0  0  0  0  0  0  0  0  0  0  0
    0.4895   -2.7762    0.0000 H   0  0  0  0  0  0  0  0  0  0  0  0
   -0.7500    1.2990    0.0000 C   0  0  0  0  0  0  0  0  0 24  0  0
    0.6715    2.7970    0.0000 H   0  0  0  0  0  0  0  0  0  0  0  0
    2.1595    1.8121    0.0000 H   0  0  0  0  0  0  0  0  0  0  0  0
   -1.5000   -0.0000    0.0000 C   0  0  0  0  0  0  0  0  0 33  0  0
   -0.4895   -2.7762    0.0000 H   0  0  0  0  0  0  0  0  0  0  0  0
   -2.1595   -1.8121    0.0000 H   0  0  0  0  0  0  0  0  0  0  0  0
   -1.9935    2.1379    0.0000 H   0  0  0  0  0  0  0  0  0  0  0  0
   -0.3114    2.7335    0.0000 H   0  0  0  0  0  0  0  0  0  0  0  0
   -2.6491   -0.9642    0.0000 O   0  0  0  0  0  0  0  0  0  2  0  0
   -1.9685    0.6449    0.0000 H   0  0  0  0  0  0  0  0  0  0  0  0
   -4.0586   -0.4512    0.0000 C   0  0  0  0  0  0  0  0  0 34  0  0
   -3.5456    0.9584    0.0000 C   0  0  0  0  0  0  0  0  0 30  0  0
   -4.5716   -1.8607    0.0000 C   0  0  0  0  0  0  0  0  0 31  0  0
   -5.4681    0.0619    0.0000 H   0  0  0  0  0  0  0  0  0  0  0  0
   -2.0684    1.2189    0.0000 C   0  0  0  0  0  0  0  0  0 15  0  0
   -4.5098    2.1075    0.0000 C   0  0  0  0  0  0  0  0  0 16  0  0
   -6.0488   -2.1212    0.0000 C   0  0  0  0  0  0  0  0  0 17  0  0
   -3.6075   -3.0098    0.0000 C   0  0  0  0  0  0  0  0  0 18  0  0
   -1.5553    2.6284    0.0000 C   0  0  0  0  0  0  0  0  0  9  0  0
   -0.8548    0.3372    0.0000 H   0  0  0  0  0  0  0  0  0  0  0  0
   -3.9967    3.5170    0.0000 C   0  0  0  0  0  0  0  0  0 10  0  0
   -5.9870    1.8470    0.0000 H   0  0  0  0  0  0  0  0  0  0  0  0
   -6.5619   -3.5307    0.0000 C   0  0  0  0  0  0  0  0  0 11  0  0
   -7.0130   -0.9721    0.0000 H   0  0  0  0  0  0  0  0  0  0  0  0
   -4.1205   -4.4193    0.0000 C   0  0  0  0  0  0  0  0  0 12  0  0
   -2.1302   -2.7493    0.0000 H   0  0  0  0  0  0  0  0  0  0  0  0
   -2.5195    3.7775    0.0000 C   0  0  0  0  0  0  0  0  0  7  0  0
   -0.1850    3.2386    0.0000 H   0  0  0  0  0  0  0  0  0  0  0  0
   -4.9609    4.6661    0.0000 H   0  0  0  0  0  0  0  0  0  0  0  0
   -5.5977   -4.6798    0.0000 C   0  0  0  0  0  0  0  0  0  8  0  0
   -8.0391   -3.7912    0.0000 H   0  0  0  0  0  0  0  0  0  0  0  0
   -3.1563   -5.5684    0.0000 H   0  0  0  0  0  0  0  0  0  0  0  0
   -2.0065    5.1870    0.0000 H   0  0  0  0  0  0  0  0  0  0  0  0
   -6.1107   -6.0893    0.0000 H   0  0  0  0  0  0  0  0  0  0  0  0
    3.0000   -0.0000    0.0000 H   0  0  0  0  0  0  0  0  0  0  0  0
  1  2  1  0
  3  1  1  0
  2  4  1  0
  2  5  1  0
  2  6  1  0
  7  3  1  0
  3  8  1  0
  3  9  1  0
  4 10  1  0
  4 11  1  0
  4 12  1  0
 10  7  1  0
  7 13  1  0
  7 14  1  0
 10 15  1  0
 10 16  1  0
 15 17  1  0
 17 18  1  0
 17 19  1  0
 17 20  1  0
 18 21  2  0
 22 18  1  0
 19 23  2  0
 24 19  1  0
 21 25  1  0
 21 26  1  0
 27 22  2  0
 22 28  1  0
 23 29  1  0
 23 30  1  0
 31 24  2  0
 24 32  1  0
 25 33  2  0
 25 34  1  0
 33 27  1  0
 27 35  1  0
 29 36  2  0
 29 37  1  0
 36 31  1  0
 31 38  1  0
 33 39  1  0
 36 40  1  0
  1 41  1  0
M  END
>  <SMILES>  (2) 
c1ccc(C(OC2CCNCC2)c2ccccc2)cc1

>  <Molecular Weight>  (2) 
267.4

>  <Substrate_ID>  (2) 
MOL0011

>  <Substrate>  (2) 


>  <Substrate_SMILES>  (2) 
CC(C)(C)c1ccc(C(=O)CCCN2CCC(OC(c3ccccc3)c3ccccc3)CC2)cc1

>  <Reaction>  (2) 
N-dealkylation_(tertiaryN-CH2-alkyl)

>  <Score>  (2) 
0.4736

>  <Reaction_Score>  (2) 
0.4309

>  <Bond_Score>  (2) 
0.5205

>  <Rank>  (2) 
2

>  <Subtype>  (2) 
2C8, 3A4

>  <Subtype_Scores>  (2) 
[2C8] SOM_score: 0.1495, Reaction_score: 0.4309, Score: 0.2538
[3A4] SOM_score: 0.5205, Reaction_score: 0.4309, Score: 0.4736


$$$$

     RDKit          2D

 36 36  0  0  0  0  0  0  0  0999 V2000
    6.0000   -5.1962    0.0000 O   0  0  0  0  0  0  0  0  0 36  0  0
    5.2500   -3.8971    0.0000 C   0  0  0  0  0  0  0  0  0 25  0  0
    4.5000   -2.5981    0.0000 C   0  0  0  0  0  0  0  0  0 21  0  0
    6.5490   -3.1471    0.0000 H   0  0  0  0  0  0  0  0  0  0  0  0
    3.9510   -4.6471    0.0000 H   0  0  0  0  0  0  0  0  0  0  0  0
    3.7500   -1.2990    0.0000 C   0  0  0  0  0  0  0  0  0 22  0  0
    5.7990   -1.8481    0.0000 H   0  0  0  0  0  0  0  0  0  0  0  0
    3.2010   -3.3481    0.0000 H   0  0  0  0  0  0  0  0  0  0  0  0
    3.0000    0.0000    0.0000 C   0  0  0  0  0  0  0  0  0 28  0  0
    5.0490   -0.5490    0.0000 H   0  0  0  0  0  0  0  0  0  0  0  0
    2.4510   -2.0490    0.0000 H   0  0  0  0  0  0  0  0  0  0  0  0
    3.7500    1.2990    0.0000 O   0  0  0  0  0  0  0  0  0  1  0  0
    1.5000    0.0000    0.0000 C   0  0  0  0  0  0  0  0  0 29  0  0
    0.7500   -1.2990    0.0000 C   0  0  0  0  0  0  0  0  0 13  0  0
    0.7500    1.2990    0.0000 C   0  0  0  0  0  0  0  0  0 14  0  0
   -0.7500   -1.2990    0.0000 C   0  0  0  0  0  0  0  0  0 19  0  0
    1.5000   -2.5981    0.0000 H   0  0  0  0  0  0  0  0  0  0  0  0
   -0.7500    1.2990    0.0000 C   0  0  0  0  0  0  0  0  0 20  0  0
    1.5000    2.5981    0.0000 H   0  0  0  0  0  0  0  0  0  0  0  0
   -1.5000    0.0000    0.0000 C   0  0  0  0  0  0  0  0  0 32  0  0
   -1.5000   -2.5981    0.0000 H   0  0  0  0  0  0  0  0  0  0  0  0
   -1.1929    2.0661    0.0000 H   0  0  0  0  0  0  0  0  0  0  0  0
   -3.0000    0.0000    0.0000 C   0  0  0  0  0  0  0  0  0 35  0  0
   -4.5000    0.0000    0.0000 C   0  0  0  0  0  0  0  0  0  4  0  0
   -3.0000    1.5000    0.0000 C   0  0  0  0  0  0  0  0  0  5  0  0
   -3.0000   -1.5000    0.0000 C   0  0  0  0  0  0  0  0  0  6  0  0
   -6.0000   -0.0000    0.0000 H   0  0  0  0  0  0  0  0  0  0  0  0
   -4.6080   -0.8791    0.0000 H   0  0  0  0  0  0  0  0  0  0  0  0
   -4.6080    0.8791    0.0000 H   0  0  0  0  0  0  0  0  0  0  0  0
   -3.0000    3.0000    0.0000 H   0  0  0  0  0  0  0  0  0  0  0  0
   -3.8791    1.6080    0.0000 H   0  0  0  0  0  0  0  0  0  0  0  0
   -2.1406    1.7143    0.0000 H   0  0  0  0  0  0  0  0  0  0  0  0
   -3.0000   -3.0000    0.0000 H   0  0  0  0  0  0  0  0  0  0  0  0
   -3.8791   -1.6080    0.0000 H   0  0  0  0  0  0  0  0  0  0  0  0
   -1.5446   -1.8630    0.0000 H   0  0  0  0  0  0  0  0  0  0  0  0
    5.2500   -6.4952    0.0000 H   0  0  0  0  0  0  0  0  0  0  0  0
  1  2  1  0
  3  2  1  0
  2  4  1  0
  2  5  1  0
  6  3  1  0
  3  7  1  0
  3  8  1  0
  9  6  1  0
  6 10  1  0
  6 11  1  0
 12  9  2  0
  9 13  1  0
 13 14  2  0
 15 13  1  0
 14 16  1  0
 14 17  1  0
 18 15  2  0
 15 19  1  0
 16 20  2  0
 16 21  1  0
 20 18  1  0
 18 22  1  0
 20 23  1  0
 23 24  1  0
 23 25  1  0
 23 26  1  0
 24 27  1  0
 24 28  1  0
 24 29  1  0
 25 30  1  0
 25 31  1  0
 25 32  1  0
 26 33  1  0
 26 34  1  0
 26 35  1  0
  1 36  1  0
M  END
>  <SMILES>  (3) 
CC(C)(C)c1ccc(C(=O)CCCO)cc1

>  <Molecular Weight>  (3) 
220.3

>  <Substrate_ID>  (3) 
MOL0011

>  <Substrate>  (3) 


>  <Substrate_SMILES>  (3) 
CC(C)(C)c1ccc(C(=O)CCCN2CCC(OC(c3ccccc3)c3ccccc3)CC2)cc1

>  <Reaction>  (3) 
N-dealkylation_(tertiaryN-CH2-alkyl)

>  <Score>  (3) 
0.4736

>  <Reaction_Score>  (3) 
0.4309

>  <Bond_Score>  (3) 
0.5205

>  <Rank>  (3) 
2

>  <Subtype>  (3) 
2C8, 3A4

>  <Subtype_Scores>  (3) 
[2C8] SOM_score: 0.1495, Reaction_score: 0.4309, Score: 0.2538
[3A4] SOM_score: 0.5205, Reaction_score: 0.4309, Score: 0.4736


$$$$

     RDKit          2D

 34 34  0  0  0  0  0  0  0  0999 V2000
    5.2500   -3.8971    0.0000 C   0  0  0  0  0  0  0  0  0 25  0  0
    6.7500   -3.8971    0.0000 O   0  0  0  0  0  0  0  0  0 36  0  0
    4.5000   -2.5981    0.0000 C   0  0  0  0  0  0  0  0  0 21  0  0
    4.5000   -5.1962    0.0000 H   0  0  0  0  0  0  0  0  0  0  0  0
    3.7500   -1.2990    0.0000 C   0  0  0  0  0  0  0  0  0 22  0  0
    5.7990   -1.8481    0.0000 H   0  0  0  0  0  0  0  0  0  0  0  0
    3.2010   -3.3481    0.0000 H   0  0  0  0  0  0  0  0  0  0  0  0
    3.0000    0.0000    0.0000 C   0  0  0  0  0  0  0  0  0 28  0  0
    5.0490   -0.5490    0.0000 H   0  0  0  0  0  0  0  0  0  0  0  0
    2.4510   -2.0490    0.0000 H   0  0  0  0  0  0  0  0  0  0  0  0
    3.7500    1.2990    0.0000 O   0  0  0  0  0  0  0  0  0  1  0  0
    1.5000    0.0000    0.0000 C   0  0  0  0  0  0  0  0  0 29  0  0
    0.7500   -1.2990    0.0000 C   0  0  0  0  0  0  0  0  0 13  0  0
    0.7500    1.2990    0.0000 C   0  0  0  0  0  0  0  0  0 14  0  0
   -0.7500   -1.2990    0.0000 C   0  0  0  0  0  0  0  0  0 19  0  0
    1.5000   -2.5981    0.0000 H   0  0  0  0  0  0  0  0  0  0  0  0
   -0.7500    1.2990    0.0000 C   0  0  0  0  0  0  0  0  0 20  0  0
    1.5000    2.5981    0.0000 H   0  0  0  0  0  0  0  0  0  0  0  0
   -1.5000    0.0000    0.0000 C   0  0  0  0  0  0  0  0  0 32  0  0
   -1.5000   -2.5981    0.0000 H   0  0  0  0  0  0  0  0  0  0  0  0
   -1.1929    2.0661    0.0000 H   0  0  0  0  0  0  0  0  0  0  0  0
   -3.0000    0.0000    0.0000 C   0  0  0  0  0  0  0  0  0 35  0  0
   -4.5000    0.0000    0.0000 C   0  0  0  0  0  0  0  0  0  4  0  0
   -3.0000    1.5000    0.0000 C   0  0  0  0  0  0  0  0  0  5  0  0
   -3.0000   -1.5000    0.0000 C   0  0  0  0  0  0  0  0  0  6  0  0
   -6.0000    0.0000    0.0000 H   0  0  0  0  0  0  0  0  0  0  0  0
   -4.6080    0.8791    0.0000 H   0  0  0  0  0  0  0  0  0  0  0  0
   -4.6080   -0.8791    0.0000 H   0  0  0  0  0  0  0  0  0  0  0  0
   -3.0000    3.0000    0.0000 H   0  0  0  0  0  0  0  0  0  0  0  0
   -3.8791    1.6080    0.0000 H   0  0  0  0  0  0  0  0  0  0  0  0
   -2.1406    1.7143    0.0000 H   0  0  0  0  0  0  0  0  0  0  0  0
   -3.0000   -3.0000    0.0000 H   0  0  0  0  0  0  0  0  0  0  0  0
   -3.8791   -1.6080    0.0000 H   0  0  0  0  0  0  0  0  0  0  0  0
   -1.5446   -1.8630    0.0000 H   0  0  0  0  0  0  0  0  0  0  0  0
  1  2  2  0
  3  1  1  0
  1  4  1  0
  5  3  1  0
  3  6  1  0
  3  7  1  0
  8  5  1  0
  5  9  1  0
  5 10  1  0
 11  8  2  0
  8 12  1  0
 12 13  2  0
 14 12  1  0
 13 15  1  0
 13 16  1  0
 17 14  2  0
 14 18  1  0
 15 19  2  0
 15 20  1  0
 19 17  1  0
 17 21  1  0
 19 22  1  0
 22 23  1  0
 22 24  1  0
 22 25  1  0
 23 26  1  0
 23 27  1  0
 23 28  1  0
 24 29  1  0
 24 30  1  0
 24 31  1  0
 25 32  1  0
 25 33  1  0
 25 34  1  0
M  END
>  <SMILES>  (4) 
CC(C)(C)c1ccc(C(=O)CCC=O)cc1

>  <Molecular Weight>  (4) 
218.3

>  <Substrate_ID>  (4) 
MOL0011

>  <Substrate>  (4) 


>  <Substrate_SMILES>  (4) 
CC(C)(C)c1ccc(C(=O)CCCN2CCC(OC(c3ccccc3)c3ccccc3)CC2)cc1

>  <Reaction>  (4) 
N-dealkylation_(hetero_ring)

>  <Score>  (4) 
0.4736

>  <Reaction_Score>  (4) 
0.4309

>  <Bond_Score>  (4) 
0.5205

>  <Rank>  (4) 
2

>  <Subtype>  (4) 
2C8, 3A4

>  <Subtype_Scores>  (4) 
[2C8] SOM_score: 0.1495, Reaction_score: 0.4309, Score: 0.2538
[3A4] SOM_score: 0.5205, Reaction_score: 0.4309, Score: 0.4736


$$$$
