
     RDKit          2D

 55 58  0  0  0  0  0  0  0  0999 V2000
    1.5000   -2.5981    0.0000 C   0  0  0  0  0  0  0  0  0 17  0  0
    1.7605   -4.0753    0.0000 C   0  0  0  0  0  0  0  0  0  3  0  0
    0.3509   -3.5623    0.0000 O   0  0  0  0  0  0  0  0  0 27  0  0
    2.9095   -2.0850    0.0000 C   0  0  0  0  0  0  0  0  0 19  0  0
    0.7500   -1.2990    0.0000 C   0  0  0  0  0  0  0  0  0 22  0  0
    3.1700   -0.6078    0.0000 C   0  0  0  0  0  0  0  0  0  9  0  0
    4.0586   -3.0492    0.0000 C   0  0  0  0  0  0  0  0  0 10  0  0
    1.5000    0.0000    0.0000 C   0  0  0  0  0  0  0  0  0 14  0  0
   -0.7500   -1.2990    0.0000 C   0  0  0  0  0  0  0  0  0 21  0  0
    4.5796   -0.0948    0.0000 C   0  0  0  0  0  0  0  0  0 11  0  0
    2.6264   -0.0248    0.0000 H   0  0  0  0  0  0  0  0  0  0  0  0
    5.4681   -2.5362    0.0000 C   0  0  0  0  0  0  0  0  0 12  0  0
    3.9801   -4.5472    0.0000 H   0  0  0  0  0  0  0  0  0  0  0  0
    0.7500    1.2990    0.0000 C   0  0  0  0  0  0  0  0  0 24  0  0
    2.2735    0.1929    0.0000 H   0  0  0  0  0  0  0  0  0  0  0  0
   -1.5000    0.0000    0.0000 C   0  0  0  0  0  0  0  0  0 13  0  0
   -1.5000   -2.5981    0.0000 C   0  0  0  0  0  0  0  0  0  4  0  0
    5.7286   -1.0590    0.0000 C   0  0  0  0  0  0  0  0  0 20  0  0
    4.8400    1.3824    0.0000 H   0  0  0  0  0  0  0  0  0  0  0  0
    6.6172   -3.5004    0.0000 H   0  0  0  0  0  0  0  0  0  0  0  0
   -0.7500    1.2990    0.0000 C   0  0  0  0  0  0  0  0  0 23  0  0
    1.5000    2.5981    0.0000 C   0  0  0  0  0  0  0  0  0 26  0  0
   -3.0000    0.0000    0.0000 H   0  0  0  0  0  0  0  0  0  0  0  0
   -2.2500   -3.8971    0.0000 H   0  0  0  0  0  0  0  0  0  0  0  0
   -2.7990   -1.8481    0.0000 H   0  0  0  0  0  0  0  0  0  0  0  0
   -0.4210   -3.6401    0.0000 H   0  0  0  0  0  0  0  0  0  0  0  0
    7.1382   -0.5460    0.0000 C   0  0  0  0  0  0  0  0  0 18  0  0
   -1.5000    2.5981    0.0000 C   0  0  0  0  0  0  0  0  0 25  0  0
    0.7500    3.8971    0.0000 C   0  0  0  0  0  0  0  0  0 16  0  0
    2.6491    3.5623    0.0000 C   0  0  0  0  0  0  0  0  0  7  0  0
    2.6491    1.6339    0.0000 C   0  0  0  0  0  0  0  0  0  8  0  0
    7.3986    0.9313    0.0000 O   0  0  0  0  0  0  0  0  0  1  0  0
    8.2872   -1.5101    0.0000 O   0  0  0  0  0  0  0  0  0  2  0  0
   -2.6491    1.6339    0.0000 C   0  0  0  0  0  0  0  0  0  5  0  0
   -2.6491    3.5623    0.0000 C   0  0  0  0  0  0  0  0  0  6  0  0
   -0.7500    3.8971    0.0000 C   0  0  0  0  0  0  0  0  0 15  0  0
    0.4895    5.3743    0.0000 H   0  0  0  0  0  0  0  0  0  0  0  0
    2.0865    4.5781    0.0000 H   0  0  0  0  0  0  0  0  0  0  0  0
    3.7981    4.5264    0.0000 H   0  0  0  0  0  0  0  0  0  0  0  0
    3.7461    2.5393    0.0000 H   0  0  0  0  0  0  0  0  0  0  0  0
    1.8321    4.8203    0.0000 H   0  0  0  0  0  0  0  0  0  0  0  0
    3.7981    0.6697    0.0000 H   0  0  0  0  0  0  0  0  0  0  0  0
    3.7461    2.6569    0.0000 H   0  0  0  0  0  0  0  0  0  0  0  0
    1.8321    0.3759    0.0000 H   0  0  0  0  0  0  0  0  0  0  0  0
    9.6968   -0.9971    0.0000 H   0  0  0  0  0  0  0  0  0  0  0  0
   -3.7981    0.6697    0.0000 H   0  0  0  0  0  0  0  0  0  0  0  0
   -3.7461    2.6569    0.0000 H   0  0  0  0  0  0  0  0  0  0  0  0
   -1.9916    0.2857    0.0000 H   0  0  0  0  0  0  0  0  0  0  0  0
   -3.7981    4.5264    0.0000 H   0  0  0  0  0  0  0  0  0  0  0  0
   -1.8321    4.8203    0.0000 H   0  0  0  0  0  0  0  0  0  0  0  0
   -3.7461    2.5393    0.0000 H   0  0  0  0  0  0  0  0  0  0  0  0
   -2.0865    4.5781    0.0000 H   0  0  0  0  0  0  0  0  0  0  0  0
   -0.4895    5.3743    0.0000 H   0  0  0  0  0  0  0  0  0  0  0  0
    3.2493   -4.2581    0.0000 H   0  0  0  0  0  0  0  0  0  0  0  0
    1.5000   -5.5525    0.0000 H   0  0  0  0  0  0  0  0  0  0  0  0
  1  2  1  0
  2  3  1  0
  3  1  1  0
  4  1  1  0
  1  5  1  0
  6  4  2  0
  4  7  1  0
  5  8  2  0
  9  5  1  0
 10  6  1  0
  6 11  1  0
  7 12  2  0
  7 13  1  0
  8 14  1  0
  8 15  1  0
 16  9  2  0
  9 17  1  0
 18 10  2  0
 10 19  1  0
 12 18  1  0
 12 20  1  0
 14 21  2  0
 22 14  1  0
 21 16  1  0
 16 23  1  0
 17 24  1  0
 17 25  1  0
 17 26  1  0
 27 18  1  0
 21 28  1  0
 29 22  1  0
 22 30  1  0
 22 31  1  0
 32 27  2  0
 27 33  1  0
 28 34  1  0
 28 35  1  0
 28 36  1  0
 36 29  1  0
 29 37  1  0
 29 38  1  0
 30 39  1  0
 30 40  1  0
 30 41  1  0
 31 42  1  0
 31 43  1  0
 31 44  1  0
 33 45  1  0
 34 46  1  0
 34 47  1  0
 34 48  1  0
 35 49  1  0
 35 50  1  0
 35 51  1  0
 36 52  1  0
 36 53  1  0
  2 54  1  0
  2 55  1  0
M  END
>  <SMILES>  (1) 
Cc1cc2c(cc1C1(c3ccc(C(=O)O)cc3)CO1)C(C)(C)CCC2(C)C

>  <Molecular Weight>  (1) 
364.5

>  <Substrate_ID>  (1) 
MOL0013

>  <Substrate>  (1) 


>  <Substrate_SMILES>  (1) 
C=C(c1ccc(C(=O)O)cc1)c1cc2c(cc1C)C(C)(C)CCC2(C)C

>  <Reaction>  (1) 
epoxidation

>  <Score>  (1) 
0.1076

>  <Reaction_Score>  (1) 
0.0469

>  <Bond_Score>  (1) 
0.247

>  <Rank>  (1) 
1

>  <Subtype>  (1) 
3A4

>  <Subtype_Scores>  (1) 
[3A4] SOM_score: 0.2470, Reaction_score: 0.0469, Score: 0.1076


$$$$
