
     RDKit          2D

 54 58  0  0  0  0  0  0  0  0999 V2000
    1.5000   -2.5981    0.0000 C   0  0  0  0  0  0  0  0  0 26  0  0
    2.6491   -1.6339    0.0000 C   0  0  0  0  0  0  0  0  0 22  0  0
    4.0586   -2.1469    0.0000 C   0  0  0  0  0  0  0  0  0 11  0  0
    5.2077   -1.1827    0.0000 C   0  0  0  0  0  0  0  0  0  7  0  0
    4.9472    0.2945    0.0000 C   0  0  0  0  0  0  0  0  0  5  0  0
    6.0963    1.2586    0.0000 O   0  0  0  0  0  0  0  0  0 28  0  0
    3.5377    0.8075    0.0000 C   0  0  0  0  0  0  0  0  0  6  0  0
    2.3886   -0.1567    0.0000 C   0  0  0  0  0  0  0  0  0 10  0  0
    0.7500   -1.2990    0.0000 C   0  0  0  0  0  0  0  0  0 24  0  0
    0.7500   -3.8971    0.0000 N   0  0  0  0  0  0  0  0  0  4  0  0
    2.6491   -3.5623    0.0000 H   0  0  0  0  0  0  0  0  0  0  0  0
    1.5000    0.0000    0.0000 C   0  0  0  0  0  0  0  0  0 13  0  0
   -0.7500   -1.2990    0.0000 C   0  0  0  0  0  0  0  0  0 23  0  0
    1.5000   -5.1962    0.0000 C   0  0  0  0  0  0  0  0  0 21  0  0
   -0.7500   -3.8971    0.0000 C   0  0  0  0  0  0  0  0  0 20  0  0
    0.7500    1.2990    0.0000 C   0  0  0  0  0  0  0  0  0  9  0  0
    2.2735    0.1929    0.0000 H   0  0  0  0  0  0  0  0  0  0  0  0
   -1.5000   -2.5981    0.0000 C   0  0  0  0  0  0  0  0  0 14  0  0
   -1.5000    0.0000    0.0000 C   0  0  0  0  0  0  0  0  0 12  0  0
    0.7500   -6.4952    0.0000 O   0  0  0  0  0  0  0  0  0  1  0  0
    3.0000   -5.1962    0.0000 O   0  0  0  0  0  0  0  0  0  2  0  0
   -2.1595   -4.4101    0.0000 H   0  0  0  0  0  0  0  0  0  0  0  0
   -0.4895   -5.3743    0.0000 H   0  0  0  0  0  0  0  0  0  0  0  0
   -0.7500    1.2990    0.0000 C   0  0  0  0  0  0  0  0  0  8  0  0
    1.5000    2.5981    0.0000 H   0  0  0  0  0  0  0  0  0  0  0  0
   -2.6491   -1.6339    0.0000 H   0  0  0  0  0  0  0  0  0  0  0  0
   -2.6491   -3.5623    0.0000 H   0  0  0  0  0  0  0  0  0  0  0  0
   -3.0000    0.0000    0.0000 H   0  0  0  0  0  0  0  0  0  0  0  0
    3.7500   -6.4952    0.0000 C   0  0  0  0  0  0  0  0  0 27  0  0
   -1.5000    2.5981    0.0000 H   0  0  0  0  0  0  0  0  0  0  0  0
    4.8991   -5.5310    0.0000 C   0  0  0  0  0  0  0  0  0 19  0  0
    4.0105   -7.9724    0.0000 C   0  0  0  0  0  0  0  0  0 25  0  0
    2.3405   -7.0082    0.0000 H   0  0  0  0  0  0  0  0  0  0  0  0
    6.3086   -6.0440    0.0000 N   0  0  0  0  0  0  0  0  0  3  0  0
    5.6491   -4.2320    0.0000 H   0  0  0  0  0  0  0  0  0  0  0  0
    3.7500   -4.5668    0.0000 H   0  0  0  0  0  0  0  0  0  0  0  0
    5.4200   -8.4854    0.0000 C   0  0  0  0  0  0  0  0  0 15  0  0
    5.4200   -8.4854    0.0000 C   0  0  0  0  0  0  0  0  0 16  0  0
    2.8614   -8.9366    0.0000 H   0  0  0  0  0  0  0  0  0  0  0  0
    6.5691   -7.5213    0.0000 C   0  0  0  0  0  0  0  0  0 17  0  0
    6.5691   -7.5213    0.0000 C   0  0  0  0  0  0  0  0  0 18  0  0
    4.5173   -9.6834    0.0000 H   0  0  0  0  0  0  0  0  0  0  0  0
    6.4430   -9.5825    0.0000 H   0  0  0  0  0  0  0  0  0  0  0  0
    4.8340   -9.8662    0.0000 H   0  0  0  0  0  0  0  0  0  0  0  0
    6.6780   -9.3024    0.0000 H   0  0  0  0  0  0  0  0  0  0  0  0
    7.1551   -8.9020    0.0000 H   0  0  0  0  0  0  0  0  0  0  0  0
    8.0306   -7.1839    0.0000 H   0  0  0  0  0  0  0  0  0  0  0  0
    7.4718   -8.7192    0.0000 H   0  0  0  0  0  0  0  0  0  0  0  0
    7.9056   -6.8402    0.0000 H   0  0  0  0  0  0  0  0  0  0  0  0
    4.3191   -3.6241    0.0000 H   0  0  0  0  0  0  0  0  0  0  0  0
    6.6172   -1.6958    0.0000 H   0  0  0  0  0  0  0  0  0  0  0  0
    3.2772    2.2847    0.0000 H   0  0  0  0  0  0  0  0  0  0  0  0
    1.1451    0.6822    0.0000 H   0  0  0  0  0  0  0  0  0  0  0  0
    5.8358    2.7359    0.0000 H   0  0  0  0  0  0  0  0  0  0  0  0
  1  2  1  0
  2  3  2  0
  3  4  1  0
  4  5  2  0
  5  6  1  0
  5  7  1  0
  7  8  2  0
  8  2  1  0
  9  1  1  0
  1 10  1  0
  1 11  1  1
 12  9  2  0
  9 13  1  0
 14 10  1  0
 10 15  1  0
 16 12  1  0
 12 17  1  0
 18 13  1  0
 13 19  2  0
 20 14  2  0
 14 21  1  0
 15 18  1  0
 15 22  1  0
 15 23  1  0
 24 16  2  0
 16 25  1  0
 18 26  1  0
 18 27  1  0
 19 24  1  0
 19 28  1  0
 21 29  1  0
 24 30  1  0
 29 31  1  0
 32 29  1  0
 29 33  1  6
 31 34  1  0
 31 35  1  0
 31 36  1  0
 37 32  1  0
 32 38  1  0
 32 39  1  0
 34 40  1  0
 41 34  1  0
 40 37  1  0
 37 42  1  0
 37 43  1  0
 38 41  1  0
 38 44  1  0
 38 45  1  0
 40 46  1  0
 40 47  1  0
 41 48  1  0
 41 49  1  0
  3 50  1  0
  4 51  1  0
  7 52  1  0
  8 53  1  0
  6 54  1  0
M  END
>  <SMILES>  (1) 
O=C(OC1CN2CCC1CC2)N1CCc2ccccc2C1c1ccc(O)cc1

>  <Molecular Weight>  (1) 
378.5

>  <Substrate_ID>  (1) 
MOL0014

>  <Substrate>  (1) 


>  <Substrate_SMILES>  (1) 
O=C(OC1CN2CCC1CC2)N1CCc2ccccc2C1c1ccccc1

>  <Reaction>  (1) 
aromatic_hydroxylation_(para_to_carbon),aromatic hydroxylation

>  <Score>  (1) 
0.2331

>  <Reaction_Score>  (1) 
0.2581

>  <Bond_Score>  (1) 
0.2106

>  <Rank>  (1) 
1

>  <Subtype>  (1) 
3A4

>  <Subtype_Scores>  (1) 
[3A4] SOM_score: 0.2106, Reaction_score: 0.2581, Score: 0.2331


$$$$

     RDKit          2D

 54 58  0  0  0  0  0  0  0  0999 V2000
    0.7500   -1.2990    0.0000 C   0  0  0  0  0  0  0  0  0 23  0  0
    1.5000    0.0000    0.0000 C   0  0  0  0  0  0  0  0  0 14  0  0
    2.6491    0.9642    0.0000 O   0  0  0  0  0  0  0  0  0 28  0  0
    0.7500    1.2990    0.0000 C   0  0  0  0  0  0  0  0  0 20  0  0
    1.5000   -2.5981    0.0000 C   0  0  0  0  0  0  0  0  0 12  0  0
   -0.7500   -1.2990    0.0000 C   0  0  0  0  0  0  0  0  0 24  0  0
    0.7500   -3.8971    0.0000 C   0  0  0  0  0  0  0  0  0  8  0  0
    3.0000   -2.5981    0.0000 H   0  0  0  0  0  0  0  0  0  0  0  0
   -1.5000   -2.5981    0.0000 C   0  0  0  0  0  0  0  0  0 13  0  0
   -1.5000    0.0000    0.0000 C   0  0  0  0  0  0  0  0  0 26  0  0
   -0.7500   -3.8971    0.0000 C   0  0  0  0  0  0  0  0  0  9  0  0
    1.5000   -5.1962    0.0000 H   0  0  0  0  0  0  0  0  0  0  0  0
   -2.2735   -2.7910    0.0000 H   0  0  0  0  0  0  0  0  0  0  0  0
   -2.6491   -0.9642    0.0000 C   0  0  0  0  0  0  0  0  0 22  0  0
   -0.7500    1.2990    0.0000 N   0  0  0  0  0  0  0  0  0  4  0  0
   -2.6491    0.9642    0.0000 H   0  0  0  0  0  0  0  0  0  0  0  0
   -1.5000   -5.1962    0.0000 H   0  0  0  0  0  0  0  0  0  0  0  0
   -4.0586   -0.4512    0.0000 C   0  0  0  0  0  0  0  0  0 10  0  0
   -2.3886   -2.4414    0.0000 C   0  0  0  0  0  0  0  0  0 11  0  0
   -1.5000    2.5981    0.0000 C   0  0  0  0  0  0  0  0  0 21  0  0
   -5.2077   -1.4153    0.0000 C   0  0  0  0  0  0  0  0  0  6  0  0
   -4.3191    1.0261    0.0000 H   0  0  0  0  0  0  0  0  0  0  0  0
   -3.5377   -3.4056    0.0000 C   0  0  0  0  0  0  0  0  0  7  0  0
   -1.1451   -3.2802    0.0000 H   0  0  0  0  0  0  0  0  0  0  0  0
   -0.7500    3.8971    0.0000 O   0  0  0  0  0  0  0  0  0  1  0  0
   -3.0000    2.5981    0.0000 O   0  0  0  0  0  0  0  0  0  2  0  0
   -4.9472   -2.8925    0.0000 C   0  0  0  0  0  0  0  0  0  5  0  0
   -6.6172   -0.9023    0.0000 H   0  0  0  0  0  0  0  0  0  0  0  0
   -3.2772   -4.8828    0.0000 H   0  0  0  0  0  0  0  0  0  0  0  0
   -3.7500    3.8971    0.0000 C   0  0  0  0  0  0  0  0  0 27  0  0
   -6.0963   -3.8567    0.0000 H   0  0  0  0  0  0  0  0  0  0  0  0
   -4.8991    2.9329    0.0000 C   0  0  0  0  0  0  0  0  0 19  0  0
   -4.0105    5.3743    0.0000 C   0  0  0  0  0  0  0  0  0 25  0  0
   -2.3405    4.4101    0.0000 H   0  0  0  0  0  0  0  0  0  0  0  0
   -6.3086    3.4460    0.0000 N   0  0  0  0  0  0  0  0  0  3  0  0
   -5.6491    1.6339    0.0000 H   0  0  0  0  0  0  0  0  0  0  0  0
   -3.7500    1.9688    0.0000 H   0  0  0  0  0  0  0  0  0  0  0  0
   -5.4200    5.8874    0.0000 C   0  0  0  0  0  0  0  0  0 15  0  0
   -5.4200    5.8874    0.0000 C   0  0  0  0  0  0  0  0  0 16  0  0
   -2.8614    6.3385    0.0000 H   0  0  0  0  0  0  0  0  0  0  0  0
   -6.5691    4.9232    0.0000 C   0  0  0  0  0  0  0  0  0 17  0  0
   -6.5691    4.9232    0.0000 C   0  0  0  0  0  0  0  0  0 18  0  0
   -4.5173    7.0853    0.0000 H   0  0  0  0  0  0  0  0  0  0  0  0
   -6.4430    6.9844    0.0000 H   0  0  0  0  0  0  0  0  0  0  0  0
   -4.8340    7.2681    0.0000 H   0  0  0  0  0  0  0  0  0  0  0  0
   -6.6780    6.7043    0.0000 H   0  0  0  0  0  0  0  0  0  0  0  0
   -7.1551    6.3039    0.0000 H   0  0  0  0  0  0  0  0  0  0  0  0
   -8.0306    4.5858    0.0000 H   0  0  0  0  0  0  0  0  0  0  0  0
   -7.4718    6.1211    0.0000 H   0  0  0  0  0  0  0  0  0  0  0  0
   -7.9056    4.2422    0.0000 H   0  0  0  0  0  0  0  0  0  0  0  0
    2.6491   -0.9642    0.0000 H   0  0  0  0  0  0  0  0  0  0  0  0
    0.4895    2.7762    0.0000 H   0  0  0  0  0  0  0  0  0  0  0  0
    2.1595    1.8121    0.0000 H   0  0  0  0  0  0  0  0  0  0  0  0
    4.0586    0.4512    0.0000 H   0  0  0  0  0  0  0  0  0  0  0  0
  1  2  1  0
  2  3  1  0
  2  4  1  0
  1  5  1  0
  6  1  2  0
  5  7  2  0
  5  8  1  0
  9  6  1  0
  6 10  1  0
  7 11  1  0
  7 12  1  0
 11  9  2  0
  9 13  1  0
 10 14  1  0
 10 15  1  0
 10 16  1  1
 11 17  1  0
 14 18  2  0
 19 14  1  0
 20 15  1  0
 15  4  1  0
 18 21  1  0
 18 22  1  0
 23 19  2  0
 19 24  1  0
 25 20  2  0
 20 26  1  0
 21 27  2  0
 21 28  1  0
 27 23  1  0
 23 29  1  0
 26 30  1  0
 27 31  1  0
 30 32  1  0
 33 30  1  0
 30 34  1  6
 32 35  1  0
 32 36  1  0
 32 37  1  0
 38 33  1  0
 33 39  1  0
 33 40  1  0
 35 41  1  0
 42 35  1  0
 41 38  1  0
 38 43  1  0
 38 44  1  0
 39 42  1  0
 39 45  1  0
 39 46  1  0
 41 47  1  0
 41 48  1  0
 42 49  1  0
 42 50  1  0
  2 51  1  0
  4 52  1  0
  4 53  1  0
  3 54  1  0
M  END
>  <SMILES>  (2) 
O=C(OC1CN2CCC1CC2)N1CC(O)c2ccccc2C1c1ccccc1

>  <Molecular Weight>  (2) 
378.5

>  <Substrate_ID>  (2) 
MOL0014

>  <Substrate>  (2) 


>  <Substrate_SMILES>  (2) 
O=C(OC1CN2CCC1CC2)N1CCc2ccccc2C1c1ccccc1

>  <Reaction>  (2) 
benzylic_hydroxylation_(c-CH2-CR),aliphatic hydroxylation

>  <Score>  (2) 
0.2104

>  <Reaction_Score>  (2) 
0.1925

>  <Bond_Score>  (2) 
0.2299

>  <Rank>  (2) 
2

>  <Subtype>  (2) 
3A4

>  <Subtype_Scores>  (2) 
[3A4] SOM_score: 0.2299, Reaction_score: 0.1925, Score: 0.2104


$$$$
