
     RDKit          2D

 41 42  0  0  0  0  0  0  0  0999 V2000
    3.0000   -5.1962    0.0000 N   0  0  0  0  0  0  0  0  0  3  0  0
    2.2500   -3.8971    0.0000 C   0  0  0  0  0  0  0  0  0 13  0  0
    4.5000   -5.1962    0.0000 C   0  0  0  0  0  0  0  0  0  5  0  0
    1.5000   -2.5981    0.0000 C   0  0  0  0  0  0  0  0  0 18  0  0
    3.5490   -3.1471    0.0000 H   0  0  0  0  0  0  0  0  0  0  0  0
    1.7484   -4.5167    0.0000 H   0  0  0  0  0  0  0  0  0  0  0  0
    0.7500   -1.2990    0.0000 C   0  0  0  0  0  0  0  0  0 17  0  0
    0.2010   -3.3481    0.0000 C   0  0  0  0  0  0  0  0  0 19  0  0
    2.7990   -1.8481    0.0000 H   0  0  0  0  0  0  0  0  0  0  0  0
    1.5000    0.0000    0.0000 C   0  0  0  0  0  0  0  0  0  8  0  0
   -0.7500   -1.2990    0.0000 C   0  0  0  0  0  0  0  0  0  9  0  0
    1.1651   -4.4971    0.0000 O   0  0  0  0  0  0  0  0  0  2  0  0
   -0.3121   -1.9385    0.0000 C   0  0  0  0  0  0  0  0  0 14  0  0
   -0.7632   -4.4971    0.0000 C   0  0  0  0  0  0  0  0  0 15  0  0
    0.7500    1.2990    0.0000 C   0  0  0  0  0  0  0  0  0  6  0  0
    3.0000    0.0000    0.0000 H   0  0  0  0  0  0  0  0  0  0  0  0
   -1.5000    0.0000    0.0000 C   0  0  0  0  0  0  0  0  0  7  0  0
   -1.5000   -2.5981    0.0000 H   0  0  0  0  0  0  0  0  0  0  0  0
    0.8278   -5.9587    0.0000 H   0  0  0  0  0  0  0  0  0  0  0  0
   -1.7893   -1.6781    0.0000 C   0  0  0  0  0  0  0  0  0 11  0  0
   -0.3121   -0.4385    0.0000 H   0  0  0  0  0  0  0  0  0  0  0  0
    1.0582   -1.3284    0.0000 H   0  0  0  0  0  0  0  0  0  0  0  0
   -2.2404   -4.2367    0.0000 C   0  0  0  0  0  0  0  0  0 12  0  0
    0.3157   -5.5392    0.0000 H   0  0  0  0  0  0  0  0  0  0  0  0
   -1.2762   -5.9067    0.0000 H   0  0  0  0  0  0  0  0  0  0  0  0
   -0.7500    1.2990    0.0000 C   0  0  0  0  0  0  0  0  0 16  0  0
    1.5000    2.5981    0.0000 H   0  0  0  0  0  0  0  0  0  0  0  0
   -3.0000    0.0000    0.0000 H   0  0  0  0  0  0  0  0  0  0  0  0
   -2.7535   -2.8271    0.0000 C   0  0  0  0  0  0  0  0  0 10  0  0
   -3.0883   -0.9281    0.0000 H   0  0  0  0  0  0  0  0  0  0  0  0
   -1.6326   -0.1863    0.0000 H   0  0  0  0  0  0  0  0  0  0  0  0
   -2.2404   -5.7367    0.0000 H   0  0  0  0  0  0  0  0  0  0  0  0
   -3.7176   -4.4971    0.0000 H   0  0  0  0  0  0  0  0  0  0  0  0
   -1.5000    2.5981    0.0000 O   0  0  0  0  0  0  0  0  0  1  0  0
   -4.0525   -3.5771    0.0000 H   0  0  0  0  0  0  0  0  0  0  0  0
   -3.7176   -1.6781    0.0000 H   0  0  0  0  0  0  0  0  0  0  0  0
   -0.7500    3.8971    0.0000 H   0  0  0  0  0  0  0  0  0  0  0  0
    6.0000   -5.1962    0.0000 H   0  0  0  0  0  0  0  0  0  0  0  0
    4.5000   -6.6962    0.0000 H   0  0  0  0  0  0  0  0  0  0  0  0
    4.5000   -3.6962    0.0000 H   0  0  0  0  0  0  0  0  0  0  0  0
    2.2500   -6.4952    0.0000 H   0  0  0  0  0  0  0  0  0  0  0  0
  1  2  1  0
  1  3  1  0
  4  2  1  0
  2  5  1  0
  2  6  1  0
  7  4  1  0
  4  8  1  0
  4  9  1  1
 10  7  2  0
  7 11  1  0
  8 12  1  0
  8 13  1  0
 14  8  1  0
 15 10  1  0
 10 16  1  0
 11 17  2  0
 11 18  1  0
 12 19  1  0
 13 20  1  0
 13 21  1  0
 13 22  1  0
 23 14  1  0
 14 24  1  0
 14 25  1  0
 26 15  2  0
 15 27  1  0
 17 26  1  0
 17 28  1  0
 20 29  1  0
 20 30  1  0
 20 31  1  0
 29 23  1  0
 23 32  1  0
 23 33  1  0
 34 26  1  0
 29 35  1  0
 29 36  1  0
 34 37  1  0
  3 38  1  0
  3 39  1  0
  3 40  1  0
  1 41  1  0
M  END
>  <SMILES>  (1) 
CNCC(c1ccc(O)cc1)C1(O)CCCCC1

>  <Molecular Weight>  (1) 
249.4

>  <Substrate_ID>  (1) 
MOL0029

>  <Substrate>  (1) 


>  <Substrate_SMILES>  (1) 
CN(C)CC(c1ccc(O)cc1)C1(O)CCCCC1

>  <Reaction>  (1) 
N-demethylation_(tertiary_amine)

>  <Score>  (1) 
0.8216

>  <Reaction_Score>  (1) 
0.8748

>  <Bond_Score>  (1) 
0.7716

>  <Rank>  (1) 
1

>  <Subtype>  (1) 
1A2, 2B6, 2C8, 2C9, 2C19, 2D6, 3A4

>  <Subtype_Scores>  (1) 
[1A2] SOM_score: 0.7150, Reaction_score: 0.8748, Score: 0.7909
[2B6] SOM_score: 0.4997, Reaction_score: 0.8748, Score: 0.6611
[2C8] SOM_score: 0.4286, Reaction_score: 0.8748, Score: 0.6123
[2C9] SOM_score: 0.4268, Reaction_score: 0.8748, Score: 0.6110
[2C19] SOM_score: 0.6632, Reaction_score: 0.8748, Score: 0.7617
[2D6] SOM_score: 0.7043, Reaction_score: 0.8748, Score: 0.7850
[3A4] SOM_score: 0.7716, Reaction_score: 0.8748, Score: 0.8216


$$$$
