
     RDKit          2D

 59 62  0  0  0  0  0  0  0  0999 V2000
    3.0000   -2.5981    0.0000 C   0  0  0  0  0  0  0  0  0 30  0  0
    3.7500   -1.2990    0.0000 O   0  0  0  0  0  0  0  0  0  6  0  0
    3.7500   -3.8971    0.0000 C   0  0  0  0  0  0  0  0  0 29  0  0
    1.5000   -2.5981    0.0000 C   0  0  0  0  0  0  0  0  0 28  0  0
    3.0000   -5.1962    0.0000 C   0  0  0  0  0  0  0  0  0 18  0  0
    5.2500   -3.8971    0.0000 C   0  0  0  0  0  0  0  0  0 35  0  0
    0.7500   -1.2990    0.0000 C   0  0  0  0  0  0  0  0  0 26  0  0
    0.7500   -3.8971    0.0000 C   0  0  0  0  0  0  0  0  0 17  0  0
    1.5000   -5.1962    0.0000 C   0  0  0  0  0  0  0  0  0 27  0  0
    3.4429   -5.9632    0.0000 H   0  0  0  0  0  0  0  0  0  0  0  0
    6.7500   -3.8971    0.0000 C   0  0  0  0  0  0  0  0  0 11  0  0
    5.2500   -5.3971    0.0000 C   0  0  0  0  0  0  0  0  0 12  0  0
    5.2500   -2.3971    0.0000 C   0  0  0  0  0  0  0  0  0 13  0  0
    1.5000    0.0000    0.0000 C   0  0  0  0  0  0  0  0  0 23  0  0
   -0.7500   -1.2990    0.0000 C   0  0  0  0  0  0  0  0  0 16  0  0
   -0.7500   -3.8971    0.0000 H   0  0  0  0  0  0  0  0  0  0  0  0
    0.7500   -6.4952    0.0000 N   0  0  0  0  0  0  0  0  0  9  0  0
    8.2500   -3.8971    0.0000 H   0  0  0  0  0  0  0  0  0  0  0  0
    6.8580   -4.7762    0.0000 H   0  0  0  0  0  0  0  0  0  0  0  0
    6.8580   -3.0180    0.0000 H   0  0  0  0  0  0  0  0  0  0  0  0
    5.2500   -6.8971    0.0000 H   0  0  0  0  0  0  0  0  0  0  0  0
    4.3906   -5.6114    0.0000 H   0  0  0  0  0  0  0  0  0  0  0  0
    6.1291   -5.5051    0.0000 H   0  0  0  0  0  0  0  0  0  0  0  0
    5.4328   -0.9083    0.0000 H   0  0  0  0  0  0  0  0  0  0  0  0
    6.1291   -2.2891    0.0000 H   0  0  0  0  0  0  0  0  0  0  0  0
    3.7946   -2.0342    0.0000 H   0  0  0  0  0  0  0  0  0  0  0  0
    0.7500    1.2990    0.0000 C   0  0  0  0  0  0  0  0  0 34  0  0
    3.0000    0.0000    0.0000 H   0  0  0  0  0  0  0  0  0  0  0  0
   -1.5000    0.0000    0.0000 C   0  0  0  0  0  0  0  0  0 20  0  0
   -1.5000   -2.5981    0.0000 H   0  0  0  0  0  0  0  0  0  0  0  0
   -0.7500   -6.4952    0.0000 C   0  0  0  0  0  0  0  0  0 24  0  0
    1.5000   -7.7942    0.0000 C   0  0  0  0  0  0  0  0  0 32  0  0
    1.5000    2.5981    0.0000 C   0  0  0  0  0  0  0  0  0 21  0  0
   -0.7500    1.2990    0.0000 C   0  0  0  0  0  0  0  0  0 33  0  0
   -3.0000    0.0000    0.0000 H   0  0  0  0  0  0  0  0  0  0  0  0
   -1.5000   -7.7942    0.0000 C   0  0  0  0  0  0  0  0  0 19  0  0
   -1.5000   -5.1962    0.0000 H   0  0  0  0  0  0  0  0  0  0  0  0
    0.7500   -9.0933    0.0000 N   0  0  0  0  0  0  0  0  0  8  0  0
    3.0000   -7.7942    0.0000 O   0  0  0  0  0  0  0  0  0  3  0  0
    0.7500    3.8971    0.0000 C   0  0  0  0  0  0  0  0  0 15  0  0
    3.0000    2.5981    0.0000 H   0  0  0  0  0  0  0  0  0  0  0  0
   -1.5000    2.5981    0.0000 C   0  0  0  0  0  0  0  0  0 22  0  0
   -0.7500   -9.0933    0.0000 C   0  0  0  0  0  0  0  0  0 31  0  0
   -3.0000   -7.7942    0.0000 H   0  0  0  0  0  0  0  0  0  0  0  0
    1.5000  -10.3923    0.0000 H   0  0  0  0  0  0  0  0  0  0  0  0
   -0.7500    3.8971    0.0000 C   0  0  0  0  0  0  0  0  0 25  0  0
    1.5000    5.1962    0.0000 H   0  0  0  0  0  0  0  0  0  0  0  0
   -3.0000    2.5981    0.0000 H   0  0  0  0  0  0  0  0  0  0  0  0
   -1.5000  -10.3923    0.0000 O   0  0  0  0  0  0  0  0  0  2  0  0
   -1.5000    5.1962    0.0000 N   0  0  0  0  0  0  0  0  0  7  0  0
   -0.7500    6.4952    0.0000 S   0  0  0  0  0  6  0  0  0  1  0  0
   -3.0000    5.1962    0.0000 H   0  0  0  0  0  0  0  0  0  0  0  0
    0.5490    5.7452    0.0000 O   0  0  0  0  0  0  0  0  0  4  0  0
   -2.0490    7.2452    0.0000 O   0  0  0  0  0  0  0  0  0  5  0  0
    0.0000    7.7942    0.0000 C   0  0  0  0  0  0  0  0  0 14  0  0
    0.7500    9.0933    0.0000 H   0  0  0  0  0  0  0  0  0  0  0  0
    1.2990    7.0442    0.0000 H   0  0  0  0  0  0  0  0  0  0  0  0
   -1.2990    8.5442    0.0000 H   0  0  0  0  0  0  0  0  0  0  0  0
    5.2388   -1.1162    0.0000 H   0  0  0  0  0  0  0  0  0  0  0  0
  1  2  1  0
  3  1  2  0
  1  4  1  0
  5  3  1  0
  3  6  1  0
  7  4  1  0
  4  8  2  0
  9  5  2  0
  5 10  1  0
  6 11  1  0
  6 12  1  0
  6 13  1  0
 14  7  2  0
  7 15  1  0
  8  9  1  0
  8 16  1  0
  9 17  1  0
 11 18  1  0
 11 19  1  0
 11 20  1  0
 12 21  1  0
 12 22  1  0
 12 23  1  0
 13 24  1  0
 13 25  1  0
 13 26  1  0
 27 14  1  0
 14 28  1  0
 15 29  2  0
 15 30  1  0
 17 31  1  0
 32 17  1  0
 33 27  2  0
 34 27  1  0
 29 34  1  0
 29 35  1  0
 31 36  2  0
 31 37  1  0
 38 32  1  0
 32 39  2  0
 40 33  1  0
 33 41  1  0
 34 42  2  0
 36 43  1  0
 36 44  1  0
 43 38  1  0
 38 45  1  0
 46 40  2  0
 40 47  1  0
 42 46  1  0
 42 48  1  0
 43 49  2  0
 50 46  1  0
 51 50  1  0
 50 52  1  0
 51 53  2  0
 51 54  2  0
 51 55  1  0
 55 56  1  0
 55 57  1  0
 55 58  1  0
  2 59  1  0
M  END
>  <SMILES>  (1) 
CC(C)(C)c1cc(-n2ccc(=O)[nH]c2=O)cc(-c2ccc3cc(NS(C)(=O)=O)ccc3c2)c1O

>  <Molecular Weight>  (1) 
479.6

>  <Substrate_ID>  (1) 
MOL0068

>  <Substrate>  (1) 


>  <Substrate_SMILES>  (1) 
COc1c(-c2ccc3cc(NS(C)(=O)=O)ccc3c2)cc(-n2ccc(=O)[nH]c2=O)cc1C(C)(C)C

>  <Reaction>  (1) 
O-demethylation

>  <Score>  (1) 
0.6357

>  <Reaction_Score>  (1) 
0.7207

>  <Bond_Score>  (1) 
0.5607

>  <Rank>  (1) 
1

>  <Subtype>  (1) 
1A2, 2C8, 2C9, 2C19, 3A4

>  <Subtype_Scores>  (1) 
[1A2] SOM_score: 0.4427, Reaction_score: 0.7207, Score: 0.5649
[2C8] SOM_score: 0.2818, Reaction_score: 0.7207, Score: 0.4506
[2C9] SOM_score: 0.3959, Reaction_score: 0.7207, Score: 0.5342
[2C19] SOM_score: 0.4339, Reaction_score: 0.7207, Score: 0.5592
[3A4] SOM_score: 0.5031, Reaction_score: 0.7207, Score: 0.6022


$$$$

     RDKit          2D

 63 66  0  0  0  0  0  0  0  0999 V2000
    5.2500   -3.8971    0.0000 C   0  0  0  0  0  0  0  0  0 35  0  0
    6.7500   -3.8971    0.0000 C   0  0  0  0  0  0  0  0  0 11  0  0
    8.2500   -3.8971    0.0000 O   0  0  0  0  0  0  0  0  0 36  0  0
    3.7500   -3.8971    0.0000 C   0  0  0  0  0  0  0  0  0 29  0  0
    5.2500   -5.3971    0.0000 C   0  0  0  0  0  0  0  0  0 12  0  0
    5.2500   -2.3971    0.0000 C   0  0  0  0  0  0  0  0  0 13  0  0
    3.0000   -5.1962    0.0000 C   0  0  0  0  0  0  0  0  0 18  0  0
    3.0000   -2.5981    0.0000 C   0  0  0  0  0  0  0  0  0 30  0  0
    5.2500   -6.8971    0.0000 H   0  0  0  0  0  0  0  0  0  0  0  0
    6.7388   -5.5800    0.0000 H   0  0  0  0  0  0  0  0  0  0  0  0
    4.3906   -5.6114    0.0000 H   0  0  0  0  0  0  0  0  0  0  0  0
    5.4429   -1.6236    0.0000 H   0  0  0  0  0  0  0  0  0  0  0  0
    6.7388   -2.2143    0.0000 H   0  0  0  0  0  0  0  0  0  0  0  0
    4.1890   -2.1325    0.0000 H   0  0  0  0  0  0  0  0  0  0  0  0
    1.5000   -5.1962    0.0000 C   0  0  0  0  0  0  0  0  0 27  0  0
    3.4429   -5.9632    0.0000 H   0  0  0  0  0  0  0  0  0  0  0  0
    3.7500   -1.2990    0.0000 O   0  0  0  0  0  0  0  0  0  6  0  0
    1.5000   -2.5981    0.0000 C   0  0  0  0  0  0  0  0  0 28  0  0
    0.7500   -3.8971    0.0000 C   0  0  0  0  0  0  0  0  0 17  0  0
    0.7500   -6.4952    0.0000 N   0  0  0  0  0  0  0  0  0  9  0  0
    5.2500   -1.2990    0.0000 C   0  0  0  0  0  0  0  0  0 10  0  0
    0.7500   -1.2990    0.0000 C   0  0  0  0  0  0  0  0  0 26  0  0
   -0.7500   -3.8971    0.0000 H   0  0  0  0  0  0  0  0  0  0  0  0
   -0.7500   -6.4952    0.0000 C   0  0  0  0  0  0  0  0  0 24  0  0
    1.5000   -7.7942    0.0000 C   0  0  0  0  0  0  0  0  0 32  0  0
    6.7500   -1.2990    0.0000 H   0  0  0  0  0  0  0  0  0  0  0  0
    5.2500    0.2010    0.0000 H   0  0  0  0  0  0  0  0  0  0  0  0
    5.6130   -2.7545    0.0000 H   0  0  0  0  0  0  0  0  0  0  0  0
    1.5000    0.0000    0.0000 C   0  0  0  0  0  0  0  0  0 23  0  0
   -0.7500   -1.2990    0.0000 C   0  0  0  0  0  0  0  0  0 16  0  0
   -1.5000   -7.7942    0.0000 C   0  0  0  0  0  0  0  0  0 19  0  0
   -1.5000   -5.1962    0.0000 H   0  0  0  0  0  0  0  0  0  0  0  0
    0.7500   -9.0933    0.0000 N   0  0  0  0  0  0  0  0  0  8  0  0
    3.0000   -7.7942    0.0000 O   0  0  0  0  0  0  0  0  0  3  0  0
    0.7500    1.2990    0.0000 C   0  0  0  0  0  0  0  0  0 34  0  0
    3.0000    0.0000    0.0000 H   0  0  0  0  0  0  0  0  0  0  0  0
   -1.5000    0.0000    0.0000 C   0  0  0  0  0  0  0  0  0 20  0  0
   -1.5000   -2.5981    0.0000 H   0  0  0  0  0  0  0  0  0  0  0  0
   -0.7500   -9.0933    0.0000 C   0  0  0  0  0  0  0  0  0 31  0  0
   -3.0000   -7.7942    0.0000 H   0  0  0  0  0  0  0  0  0  0  0  0
    1.5000  -10.3923    0.0000 H   0  0  0  0  0  0  0  0  0  0  0  0
    1.5000    2.5981    0.0000 C   0  0  0  0  0  0  0  0  0 21  0  0
   -0.7500    1.2990    0.0000 C   0  0  0  0  0  0  0  0  0 33  0  0
   -3.0000    0.0000    0.0000 H   0  0  0  0  0  0  0  0  0  0  0  0
   -1.5000  -10.3923    0.0000 O   0  0  0  0  0  0  0  0  0  2  0  0
    0.7500    3.8971    0.0000 C   0  0  0  0  0  0  0  0  0 15  0  0
    3.0000    2.5981    0.0000 H   0  0  0  0  0  0  0  0  0  0  0  0
   -1.5000    2.5981    0.0000 C   0  0  0  0  0  0  0  0  0 22  0  0
   -0.7500    3.8971    0.0000 C   0  0  0  0  0  0  0  0  0 25  0  0
    1.5000    5.1962    0.0000 H   0  0  0  0  0  0  0  0  0  0  0  0
   -3.0000    2.5981    0.0000 H   0  0  0  0  0  0  0  0  0  0  0  0
   -1.5000    5.1962    0.0000 N   0  0  0  0  0  0  0  0  0  7  0  0
   -0.7500    6.4952    0.0000 S   0  0  0  0  0  6  0  0  0  1  0  0
   -3.0000    5.1962    0.0000 H   0  0  0  0  0  0  0  0  0  0  0  0
    0.5490    5.7452    0.0000 O   0  0  0  0  0  0  0  0  0  4  0  0
   -2.0490    7.2452    0.0000 O   0  0  0  0  0  0  0  0  0  5  0  0
    0.0000    7.7942    0.0000 C   0  0  0  0  0  0  0  0  0 14  0  0
    0.7500    9.0933    0.0000 H   0  0  0  0  0  0  0  0  0  0  0  0
    1.2990    7.0442    0.0000 H   0  0  0  0  0  0  0  0  0  0  0  0
   -1.2990    8.5442    0.0000 H   0  0  0  0  0  0  0  0  0  0  0  0
    6.9328   -2.4083    0.0000 H   0  0  0  0  0  0  0  0  0  0  0  0
    6.9328   -5.3859    0.0000 H   0  0  0  0  0  0  0  0  0  0  0  0
    9.0000   -5.1962    0.0000 H   0  0  0  0  0  0  0  0  0  0  0  0
  1  2  1  0
  2  3  1  0
  4  1  1  0
  1  5  1  0
  1  6  1  0
  7  4  2  0
  4  8  1  0
  5  9  1  0
  5 10  1  0
  5 11  1  0
  6 12  1  0
  6 13  1  0
  6 14  1  0
 15  7  1  0
  7 16  1  0
  8 17  1  0
  8 18  2  0
 19 15  2  0
 15 20  1  0
 17 21  1  0
 22 18  1  0
 18 19  1  0
 19 23  1  0
 20 24  1  0
 25 20  1  0
 21 26  1  0
 21 27  1  0
 21 28  1  0
 29 22  2  0
 22 30  1  0
 24 31  2  0
 24 32  1  0
 33 25  1  0
 25 34  2  0
 35 29  1  0
 29 36  1  0
 30 37  2  0
 30 38  1  0
 31 39  1  0
 31 40  1  0
 39 33  1  0
 33 41  1  0
 42 35  2  0
 43 35  1  0
 37 43  1  0
 37 44  1  0
 39 45  2  0
 46 42  1  0
 42 47  1  0
 43 48  2  0
 49 46  2  0
 46 50  1  0
 48 49  1  0
 48 51  1  0
 52 49  1  0
 53 52  1  0
 52 54  1  0
 53 55  2  0
 53 56  2  0
 53 57  1  0
 57 58  1  0
 57 59  1  0
 57 60  1  0
  2 61  1  0
  2 62  1  0
  3 63  1  0
M  END
>  <SMILES>  (2) 
COc1c(-c2ccc3cc(NS(C)(=O)=O)ccc3c2)cc(-n2ccc(=O)[nH]c2=O)cc1C(C)(C)CO

>  <Molecular Weight>  (2) 
509.6

>  <Substrate_ID>  (2) 
MOL0068

>  <Substrate>  (2) 


>  <Substrate_SMILES>  (2) 
COc1c(-c2ccc3cc(NS(C)(=O)=O)ccc3c2)cc(-n2ccc(=O)[nH]c2=O)cc1C(C)(C)C

>  <Reaction>  (2) 
aliphatic_hydroxylation_(primary_carbon_next_to_quart_carbon),aliphatic hydroxylation

>  <Score>  (2) 
0.6097

>  <Reaction_Score>  (2) 
0.608

>  <Bond_Score>  (2) 
0.6114

>  <Rank>  (2) 
2

>  <Subtype>  (2) 
1A2, 2C8, 2C9, 2C19, 3A4

>  <Subtype_Scores>  (2) 
[1A2] SOM_score: 0.3120, Reaction_score: 0.6080, Score: 0.4355
[2C8] SOM_score: 0.4341, Reaction_score: 0.6080, Score: 0.5137
[2C9] SOM_score: 0.4752, Reaction_score: 0.6080, Score: 0.5375
[2C19] SOM_score: 0.4711, Reaction_score: 0.6080, Score: 0.5352
[3A4] SOM_score: 0.6114, Reaction_score: 0.6080, Score: 0.6097


$$$$
