
     RDKit          2D

 51 53  0  0  0  0  0  0  0  0999 V2000
    3.5593    3.6078    0.0000 N   0  0  0  0  0  0  0  0  0  6  0  0
    2.1328    3.1443    0.0000 C   0  0  0  0  0  0  0  0  0 20  0  0
    4.6741    2.6041    0.0000 C   0  0  0  0  0  0  0  0  0 10  0  0
    0.7062    2.6807    0.0000 C   0  0  0  0  0  0  0  0  0 25  0  0
    1.6692    4.5709    0.0000 H   0  0  0  0  0  0  0  0  0  0  0  0
    2.5963    1.7177    0.0000 H   0  0  0  0  0  0  0  0  0  0  0  0
    0.3943    1.2135    0.0000 C   0  0  0  0  0  0  0  0  0 28  0  0
   -0.4086    3.6844    0.0000 C   0  0  0  0  0  0  0  0  0 24  0  0
    1.2760    0.0000    0.0000 C   0  0  0  0  0  0  0  0  0 26  0  0
   -1.0323    0.7500    0.0000 C   0  0  0  0  0  0  0  0  0 29  0  0
   -0.0967    5.1517    0.0000 O   0  0  0  0  0  0  0  0  0  4  0  0
   -1.8351    3.2209    0.0000 C   0  0  0  0  0  0  0  0  0 23  0  0
    0.3943   -1.2135    0.0000 C   0  0  0  0  0  0  0  0  0 27  0  0
    2.7760    0.0000    0.0000 C   0  0  0  0  0  0  0  0  0 21  0  0
   -2.1470    1.7537    0.0000 C   0  0  0  0  0  0  0  0  0 17  0  0
   -1.0323   -0.7500    0.0000 N   0  0  0  0  0  0  0  0  0  7  0  0
   -1.2114    6.1554    0.0000 H   0  0  0  0  0  0  0  0  0  0  0  0
   -2.9499    4.2246    0.0000 Br  0  0  0  0  0  0  0  0  0  1  0  0
    0.8578   -2.6401    0.0000 C   0  0  0  0  0  0  0  0  0 19  0  0
    3.5260   -1.2990    0.0000 O   0  0  0  0  0  0  0  0  0  3  0  0
    3.5260    1.2990    0.0000 O   0  0  0  0  0  0  0  0  0  5  0  0
   -3.5736    1.2902    0.0000 H   0  0  0  0  0  0  0  0  0  0  0  0
   -2.2458   -1.6317    0.0000 C   0  0  0  0  0  0  0  0  0 11  0  0
    1.3213   -4.0667    0.0000 S   0  0  0  0  0  0  0  0  0  2  0  0
   -0.5016   -3.2741    0.0000 H   0  0  0  0  0  0  0  0  0  0  0  0
    2.2844   -2.1766    0.0000 H   0  0  0  0  0  0  0  0  0  0  0  0
    5.0260    1.2990    0.0000 C   0  0  0  0  0  0  0  0  0 18  0  0
   -3.4593   -2.5134    0.0000 H   0  0  0  0  0  0  0  0  0  0  0  0
   -3.1275   -0.4182    0.0000 H   0  0  0  0  0  0  0  0  0  0  0  0
   -1.3641   -2.8452    0.0000 H   0  0  0  0  0  0  0  0  0  0  0  0
    0.3177   -5.1814    0.0000 C   0  0  0  0  0  0  0  0  0 22  0  0
    6.5260    1.2990    0.0000 C   0  0  0  0  0  0  0  0  0  8  0  0
    5.0260   -0.2010    0.0000 H   0  0  0  0  0  0  0  0  0  0  0  0
    5.2189    2.0725    0.0000 H   0  0  0  0  0  0  0  0  0  0  0  0
   -1.1496   -4.8695    0.0000 C   0  0  0  0  0  0  0  0  0 15  0  0
    0.7812   -6.6080    0.0000 C   0  0  0  0  0  0  0  0  0 16  0  0
    8.0260    1.2990    0.0000 H   0  0  0  0  0  0  0  0  0  0  0  0
    6.5260   -0.2010    0.0000 H   0  0  0  0  0  0  0  0  0  0  0  0
    6.5260    2.7990    0.0000 H   0  0  0  0  0  0  0  0  0  0  0  0
   -2.1533   -5.9843    0.0000 C   0  0  0  0  0  0  0  0  0 13  0  0
   -1.4357   -3.3971    0.0000 H   0  0  0  0  0  0  0  0  0  0  0  0
   -0.2225   -7.7227    0.0000 C   0  0  0  0  0  0  0  0  0 14  0  0
    2.2484   -6.9199    0.0000 H   0  0  0  0  0  0  0  0  0  0  0  0
   -1.6897   -7.4108    0.0000 C   0  0  0  0  0  0  0  0  0 12  0  0
   -3.6205   -5.6724    0.0000 H   0  0  0  0  0  0  0  0  0  0  0  0
    0.2410   -9.1493    0.0000 H   0  0  0  0  0  0  0  0  0  0  0  0
   -2.6934   -8.5256    0.0000 H   0  0  0  0  0  0  0  0  0  0  0  0
    5.9985    1.9000    0.0000 H   0  0  0  0  0  0  0  0  0  0  0  0
    5.6777    3.7188    0.0000 H   0  0  0  0  0  0  0  0  0  0  0  0
    3.4305    1.7654    0.0000 H   0  0  0  0  0  0  0  0  0  0  0  0
    3.8712    5.0750    0.0000 H   0  0  0  0  0  0  0  0  0  0  0  0
  1  2  1  0
  1  3  1  0
  4  2  1  0
  2  5  1  0
  2  6  1  0
  7  4  2  0
  4  8  1  0
  9  7  1  0
  7 10  1  0
  8 11  1  0
  8 12  2  0
 13  9  2  0
  9 14  1  0
 15 10  2  0
 10 16  1  0
 11 17  1  0
 18 12  1  0
 12 15  1  0
 16 13  1  0
 13 19  1  0
 14 20  2  0
 14 21  1  0
 15 22  1  0
 16 23  1  0
 19 24  1  0
 19 25  1  0
 19 26  1  0
 21 27  1  0
 23 28  1  0
 23 29  1  0
 23 30  1  0
 24 31  1  0
 27 32  1  0
 27 33  1  0
 27 34  1  0
 31 35  2  0
 36 31  1  0
 32 37  1  0
 32 38  1  0
 32 39  1  0
 35 40  1  0
 35 41  1  0
 42 36  2  0
 36 43  1  0
 40 44  2  0
 40 45  1  0
 44 42  1  0
 42 46  1  0
 44 47  1  0
  3 48  1  0
  3 49  1  0
  3 50  1  0
  1 51  1  0
M  END
>  <SMILES>  (1) 
CCOC(=O)c1c(CSc2ccccc2)n(C)c2cc(Br)c(O)c(CNC)c12

>  <Molecular Weight>  (1) 
463.4

>  <Substrate_ID>  (1) 
MOL0073

>  <Substrate>  (1) 


>  <Substrate_SMILES>  (1) 
CCOC(=O)c1c(CSc2ccccc2)n(C)c2cc(Br)c(O)c(CN(C)C)c12

>  <Reaction>  (1) 
N-demethylation_(tertiary_amine)

>  <Score>  (1) 
0.8004

>  <Reaction_Score>  (1) 
0.8157

>  <Bond_Score>  (1) 
0.7854

>  <Rank>  (1) 
1

>  <Subtype>  (1) 
1A2, 2B6, 2C8, 2C9, 2C19, 2D6, 3A4

>  <Subtype_Scores>  (1) 
[1A2] SOM_score: 0.4814, Reaction_score: 0.8157, Score: 0.6267
[2B6] SOM_score: 0.2791, Reaction_score: 0.8157, Score: 0.4771
[2C8] SOM_score: 0.4553, Reaction_score: 0.8157, Score: 0.6094
[2C9] SOM_score: 0.3412, Reaction_score: 0.8157, Score: 0.5275
[2C19] SOM_score: 0.4967, Reaction_score: 0.8157, Score: 0.6365
[2D6] SOM_score: 0.5504, Reaction_score: 0.8157, Score: 0.6700
[3A4] SOM_score: 0.7854, Reaction_score: 0.8157, Score: 0.8004


$$$$

     RDKit          2D

 55 57  0  0  0  0  0  0  0  0999 V2000
    2.1328    3.1443    0.0000 C   0  0  0  0  0  0  0  0  0 20  0  0
    3.5593    3.6078    0.0000 N   0  0  0  0  0  4  0  0  0  6  0  0
    4.9859    4.0713    0.0000 C   0  0  0  0  0  0  0  0  0 10  0  0
    4.0229    2.1812    0.0000 C   0  0  0  0  0  0  0  0  0  9  0  0
    3.0958    5.0344    0.0000 O   0  0  0  0  0  1  0  0  0 30  0  0
    0.7062    2.6807    0.0000 C   0  0  0  0  0  0  0  0  0 25  0  0
    1.6692    4.5709    0.0000 H   0  0  0  0  0  0  0  0  0  0  0  0
    2.4189    1.6718    0.0000 H   0  0  0  0  0  0  0  0  0  0  0  0
    0.3943    1.2135    0.0000 C   0  0  0  0  0  0  0  0  0 28  0  0
   -0.4086    3.6844    0.0000 C   0  0  0  0  0  0  0  0  0 24  0  0
    1.2760    0.0000    0.0000 C   0  0  0  0  0  0  0  0  0 26  0  0
   -1.0323    0.7500    0.0000 C   0  0  0  0  0  0  0  0  0 29  0  0
   -0.0967    5.1517    0.0000 O   0  0  0  0  0  0  0  0  0  4  0  0
   -1.8351    3.2209    0.0000 C   0  0  0  0  0  0  0  0  0 23  0  0
    0.3943   -1.2135    0.0000 C   0  0  0  0  0  0  0  0  0 27  0  0
    2.7760    0.0000    0.0000 C   0  0  0  0  0  0  0  0  0 21  0  0
   -2.1470    1.7537    0.0000 C   0  0  0  0  0  0  0  0  0 17  0  0
   -1.0323   -0.7500    0.0000 N   0  0  0  0  0  0  0  0  0  7  0  0
   -1.2114    6.1554    0.0000 H   0  0  0  0  0  0  0  0  0  0  0  0
   -2.9499    4.2246    0.0000 Br  0  0  0  0  0  0  0  0  0  1  0  0
    0.8578   -2.6401    0.0000 C   0  0  0  0  0  0  0  0  0 19  0  0
    3.5260   -1.2990    0.0000 O   0  0  0  0  0  0  0  0  0  3  0  0
    3.5260    1.2990    0.0000 O   0  0  0  0  0  0  0  0  0  5  0  0
   -3.5736    1.2902    0.0000 H   0  0  0  0  0  0  0  0  0  0  0  0
   -2.2458   -1.6317    0.0000 C   0  0  0  0  0  0  0  0  0 11  0  0
    1.3213   -4.0667    0.0000 S   0  0  0  0  0  0  0  0  0  2  0  0
   -0.5016   -3.2741    0.0000 H   0  0  0  0  0  0  0  0  0  0  0  0
    2.2844   -2.1766    0.0000 H   0  0  0  0  0  0  0  0  0  0  0  0
    5.0260    1.2990    0.0000 C   0  0  0  0  0  0  0  0  0 18  0  0
   -3.4593   -2.5134    0.0000 H   0  0  0  0  0  0  0  0  0  0  0  0
   -1.5317   -2.6146    0.0000 H   0  0  0  0  0  0  0  0  0  0  0  0
   -3.1275   -0.4182    0.0000 H   0  0  0  0  0  0  0  0  0  0  0  0
    0.3177   -5.1814    0.0000 C   0  0  0  0  0  0  0  0  0 22  0  0
    6.5260    1.2990    0.0000 C   0  0  0  0  0  0  0  0  0  8  0  0
    5.0260   -0.2010    0.0000 H   0  0  0  0  0  0  0  0  0  0  0  0
    5.2641    2.2539    0.0000 H   0  0  0  0  0  0  0  0  0  0  0  0
   -1.1496   -4.8695    0.0000 C   0  0  0  0  0  0  0  0  0 15  0  0
    0.7812   -6.6080    0.0000 C   0  0  0  0  0  0  0  0  0 16  0  0
    8.0260    1.2990    0.0000 H   0  0  0  0  0  0  0  0  0  0  0  0
    6.5260   -0.2010    0.0000 H   0  0  0  0  0  0  0  0  0  0  0  0
    6.5260    2.7990    0.0000 H   0  0  0  0  0  0  0  0  0  0  0  0
   -2.1533   -5.9843    0.0000 C   0  0  0  0  0  0  0  0  0 13  0  0
   -1.3814   -3.6769    0.0000 H   0  0  0  0  0  0  0  0  0  0  0  0
   -0.2225   -7.7227    0.0000 C   0  0  0  0  0  0  0  0  0 14  0  0
    2.2484   -6.9199    0.0000 H   0  0  0  0  0  0  0  0  0  0  0  0
   -1.6897   -7.4108    0.0000 C   0  0  0  0  0  0  0  0  0 12  0  0
   -3.6205   -5.6724    0.0000 H   0  0  0  0  0  0  0  0  0  0  0  0
    0.2410   -9.1493    0.0000 H   0  0  0  0  0  0  0  0  0  0  0  0
   -2.6934   -8.5256    0.0000 H   0  0  0  0  0  0  0  0  0  0  0  0
    6.4125    4.5348    0.0000 H   0  0  0  0  0  0  0  0  0  0  0  0
    4.5224    5.4979    0.0000 H   0  0  0  0  0  0  0  0  0  0  0  0
    5.5075    3.2367    0.0000 H   0  0  0  0  0  0  0  0  0  0  0  0
    4.4453    1.5052    0.0000 H   0  0  0  0  0  0  0  0  0  0  0  0
    5.4494    2.6447    0.0000 H   0  0  0  0  0  0  0  0  0  0  0  0
    2.6634    1.5472    0.0000 H   0  0  0  0  0  0  0  0  0  0  0  0
  1  2  1  0
  2  3  1  0
  2  4  1  0
  2  5  1  0
  6  1  1  0
  1  7  1  0
  1  8  1  0
  9  6  2  0
  6 10  1  0
 11  9  1  0
  9 12  1  0
 10 13  1  0
 10 14  2  0
 15 11  2  0
 11 16  1  0
 17 12  2  0
 12 18  1  0
 13 19  1  0
 20 14  1  0
 14 17  1  0
 18 15  1  0
 15 21  1  0
 16 22  2  0
 16 23  1  0
 17 24  1  0
 18 25  1  0
 21 26  1  0
 21 27  1  0
 21 28  1  0
 23 29  1  0
 25 30  1  0
 25 31  1  0
 25 32  1  0
 26 33  1  0
 29 34  1  0
 29 35  1  0
 29 36  1  0
 33 37  2  0
 38 33  1  0
 34 39  1  0
 34 40  1  0
 34 41  1  0
 37 42  1  0
 37 43  1  0
 44 38  2  0
 38 45  1  0
 42 46  2  0
 42 47  1  0
 46 44  1  0
 44 48  1  0
 46 49  1  0
  3 50  1  0
  3 51  1  0
  3 52  1  0
  4 53  1  0
  4 54  1  0
  4 55  1  0
M  CHG  2   2   1   5  -1
M  END
>  <SMILES>  (2) 
CCOC(=O)c1c(CSc2ccccc2)n(C)c2cc(Br)c(O)c(C[N+](C)(C)[O-])c12

>  <Molecular Weight>  (2) 
493.4

>  <Substrate_ID>  (2) 
MOL0073

>  <Substrate>  (2) 


>  <Substrate_SMILES>  (2) 
CCOC(=O)c1c(CSc2ccccc2)n(C)c2cc(Br)c(O)c(CN(C)C)c12

>  <Reaction>  (2) 
N-oxidation_(RN(CH3)2),N-oxidation

>  <Score>  (2) 
0.4283

>  <Reaction_Score>  (2) 
0.2199

>  <Bond_Score>  (2) 
0.8344

>  <Rank>  (2) 
2

>  <Subtype>  (2) 
1A2, 2B6, 2C8, 2C9, 2C19, 2D6, 3A4

>  <Subtype_Scores>  (2) 
[1A2] SOM_score: 0.5561, Reaction_score: 0.2199, Score: 0.3497
[2B6] SOM_score: 0.2743, Reaction_score: 0.2199, Score: 0.2456
[2C8] SOM_score: 0.5371, Reaction_score: 0.2199, Score: 0.3437
[2C9] SOM_score: 0.3746, Reaction_score: 0.2199, Score: 0.2870
[2C19] SOM_score: 0.5542, Reaction_score: 0.2199, Score: 0.3491
[2D6] SOM_score: 0.6364, Reaction_score: 0.2199, Score: 0.3741
[3A4] SOM_score: 0.8344, Reaction_score: 0.2199, Score: 0.4283


$$$$

     RDKit          2D

 55 57  0  0  0  0  0  0  0  0999 V2000
    5.0260   -1.2990    0.0000 C   0  0  0  0  0  0  0  0  0 18  0  0
    5.0260   -2.7990    0.0000 O   0  0  0  0  0  0  0  0  0 30  0  0
    6.4067   -3.3851    0.0000 H   0  0  0  0  0  0  0  0  0  0  0  0
    3.5260   -1.2990    0.0000 O   0  0  0  0  0  0  0  0  0  5  0  0
    5.0260    0.2010    0.0000 C   0  0  0  0  0  0  0  0  0  8  0  0
    6.5148   -1.1162    0.0000 H   0  0  0  0  0  0  0  0  0  0  0  0
    2.7760    0.0000    0.0000 C   0  0  0  0  0  0  0  0  0 21  0  0
    5.0260    1.7010    0.0000 H   0  0  0  0  0  0  0  0  0  0  0  0
    6.5260    0.2010    0.0000 H   0  0  0  0  0  0  0  0  0  0  0  0
    3.9650    0.4656    0.0000 H   0  0  0  0  0  0  0  0  0  0  0  0
    1.2760    0.0000    0.0000 C   0  0  0  0  0  0  0  0  0 26  0  0
    3.2032    1.0066    0.0000 O   0  0  0  0  0  0  0  0  0  3  0  0
    0.3943    1.2135    0.0000 C   0  0  0  0  0  0  0  0  0 27  0  0
    0.3943   -1.2135    0.0000 C   0  0  0  0  0  0  0  0  0 28  0  0
   -1.0323    0.7500    0.0000 N   0  0  0  0  0  0  0  0  0  7  0  0
    0.8578    2.6401    0.0000 C   0  0  0  0  0  0  0  0  0 19  0  0
    0.7062   -2.6807    0.0000 C   0  0  0  0  0  0  0  0  0 25  0  0
   -1.0323   -0.7500    0.0000 C   0  0  0  0  0  0  0  0  0 29  0  0
   -2.2458    1.6317    0.0000 C   0  0  0  0  0  0  0  0  0 11  0  0
    1.3213    4.0667    0.0000 S   0  0  0  0  0  0  0  0  0  2  0  0
   -0.5016    3.2741    0.0000 H   0  0  0  0  0  0  0  0  0  0  0  0
    2.2844    2.1766    0.0000 H   0  0  0  0  0  0  0  0  0  0  0  0
    2.1328   -3.1443    0.0000 C   0  0  0  0  0  0  0  0  0 20  0  0
   -0.4086   -3.6844    0.0000 C   0  0  0  0  0  0  0  0  0 24  0  0
   -2.1470   -1.7537    0.0000 C   0  0  0  0  0  0  0  0  0 17  0  0
   -3.4593    2.5134    0.0000 H   0  0  0  0  0  0  0  0  0  0  0  0
   -1.5186    2.9436    0.0000 H   0  0  0  0  0  0  0  0  0  0  0  0
   -3.1275    0.4182    0.0000 H   0  0  0  0  0  0  0  0  0  0  0  0
    2.7886    4.3786    0.0000 C   0  0  0  0  0  0  0  0  0 22  0  0
    3.5593   -3.6078    0.0000 N   0  0  0  0  0  0  0  0  0  6  0  0
    1.6692   -4.5709    0.0000 H   0  0  0  0  0  0  0  0  0  0  0  0
    2.5963   -1.7177    0.0000 H   0  0  0  0  0  0  0  0  0  0  0  0
   -0.0967   -5.1517    0.0000 O   0  0  0  0  0  0  0  0  0  4  0  0
   -1.8351   -3.2209    0.0000 C   0  0  0  0  0  0  0  0  0 23  0  0
   -3.5736   -1.2902    0.0000 H   0  0  0  0  0  0  0  0  0  0  0  0
    3.7923    3.2638    0.0000 C   0  0  0  0  0  0  0  0  0 15  0  0
    3.2521    5.8051    0.0000 C   0  0  0  0  0  0  0  0  0 16  0  0
    3.8712   -5.0750    0.0000 C   0  0  0  0  0  0  0  0  0  9  0  0
    4.6741   -2.6041    0.0000 C   0  0  0  0  0  0  0  0  0 10  0  0
   -1.2114   -6.1554    0.0000 H   0  0  0  0  0  0  0  0  0  0  0  0
   -2.9499   -4.2246    0.0000 Br  0  0  0  0  0  0  0  0  0  1  0  0
    5.2595    3.5757    0.0000 C   0  0  0  0  0  0  0  0  0 13  0  0
    3.1583    1.9044    0.0000 H   0  0  0  0  0  0  0  0  0  0  0  0
    4.7193    6.1170    0.0000 C   0  0  0  0  0  0  0  0  0 14  0  0
    2.2484    6.9199    0.0000 H   0  0  0  0  0  0  0  0  0  0  0  0
    4.1831   -6.5422    0.0000 H   0  0  0  0  0  0  0  0  0  0  0  0
    5.3384   -4.7632    0.0000 H   0  0  0  0  0  0  0  0  0  0  0  0
    2.4040   -5.3869    0.0000 H   0  0  0  0  0  0  0  0  0  0  0  0
    5.9028   -1.7438    0.0000 H   0  0  0  0  0  0  0  0  0  0  0  0
    5.5344   -3.8329    0.0000 H   0  0  0  0  0  0  0  0  0  0  0  0
    3.4305   -1.7654    0.0000 H   0  0  0  0  0  0  0  0  0  0  0  0
    5.7230    5.0023    0.0000 C   0  0  0  0  0  0  0  0  0 12  0  0
    6.2632    2.4610    0.0000 H   0  0  0  0  0  0  0  0  0  0  0  0
    5.1828    7.5436    0.0000 H   0  0  0  0  0  0  0  0  0  0  0  0
    7.1902    5.3142    0.0000 H   0  0  0  0  0  0  0  0  0  0  0  0
  1  2  1  0
  2  3  1  0
  4  1  1  0
  1  5  1  0
  1  6  1  0
  7  4  1  0
  5  8  1  0
  5  9  1  0
  5 10  1  0
 11  7  1  0
  7 12  2  0
 13 11  2  0
 11 14  1  0
 15 13  1  0
 13 16  1  0
 14 17  2  0
 14 18  1  0
 18 15  1  0
 15 19  1  0
 16 20  1  0
 16 21  1  0
 16 22  1  0
 17 23  1  0
 17 24  1  0
 25 18  2  0
 19 26  1  0
 19 27  1  0
 19 28  1  0
 20 29  1  0
 23 30  1  0
 23 31  1  0
 23 32  1  0
 24 33  1  0
 24 34  2  0
 34 25  1  0
 25 35  1  0
 29 36  2  0
 37 29  1  0
 30 38  1  0
 30 39  1  0
 33 40  1  0
 41 34  1  0
 36 42  1  0
 36 43  1  0
 44 37  2  0
 37 45  1  0
 38 46  1  0
 38 47  1  0
 38 48  1  0
 39 49  1  0
 39 50  1  0
 39 51  1  0
 42 52  2  0
 42 53  1  0
 52 44  1  0
 44 54  1  0
 52 55  1  0
M  END
>  <SMILES>  (3) 
CC(O)OC(=O)c1c(CSc2ccccc2)n(C)c2cc(Br)c(O)c(CN(C)C)c12

>  <Molecular Weight>  (3) 
493.4

>  <Substrate_ID>  (3) 
MOL0073

>  <Substrate>  (3) 


>  <Substrate_SMILES>  (3) 
CCOC(=O)c1c(CSc2ccccc2)n(C)c2cc(Br)c(O)c(CN(C)C)c12

>  <Reaction>  (3) 
aliphatic hydroxylation

>  <Score>  (3) 
0.2611

>  <Reaction_Score>  (3) 
0.208

>  <Bond_Score>  (3) 
0.3278

>  <Rank>  (3) 
3

>  <Subtype>  (3) 
2C8, 2C19, 3A4

>  <Subtype_Scores>  (3) 
[2C8] SOM_score: 0.1770, Reaction_score: 0.2080, Score: 0.1919
[2C19] SOM_score: 0.2760, Reaction_score: 0.2080, Score: 0.2396
[3A4] SOM_score: 0.3278, Reaction_score: 0.2080, Score: 0.2611


$$$$

     RDKit          2D

 47 49  0  0  0  0  0  0  0  0999 V2000
    3.5593    3.6078    0.0000 O   0  0  0  0  0  0  0  0  0 30  0  0
    2.1328    3.1443    0.0000 C   0  0  0  0  0  0  0  0  0 20  0  0
    0.7062    2.6807    0.0000 C   0  0  0  0  0  0  0  0  0 25  0  0
    1.6692    4.5709    0.0000 H   0  0  0  0  0  0  0  0  0  0  0  0
    2.5963    1.7177    0.0000 H   0  0  0  0  0  0  0  0  0  0  0  0
    0.3943    1.2135    0.0000 C   0  0  0  0  0  0  0  0  0 28  0  0
   -0.4086    3.6844    0.0000 C   0  0  0  0  0  0  0  0  0 24  0  0
    1.2760    0.0000    0.0000 C   0  0  0  0  0  0  0  0  0 26  0  0
   -1.0323    0.7500    0.0000 C   0  0  0  0  0  0  0  0  0 29  0  0
   -0.0967    5.1517    0.0000 O   0  0  0  0  0  0  0  0  0  4  0  0
   -1.8351    3.2209    0.0000 C   0  0  0  0  0  0  0  0  0 23  0  0
    0.3943   -1.2135    0.0000 C   0  0  0  0  0  0  0  0  0 27  0  0
    2.7760    0.0000    0.0000 C   0  0  0  0  0  0  0  0  0 21  0  0
   -2.1470    1.7537    0.0000 C   0  0  0  0  0  0  0  0  0 17  0  0
   -1.0323   -0.7500    0.0000 N   0  0  0  0  0  0  0  0  0  7  0  0
   -1.2114    6.1554    0.0000 H   0  0  0  0  0  0  0  0  0  0  0  0
   -2.9499    4.2246    0.0000 Br  0  0  0  0  0  0  0  0  0  1  0  0
    0.8578   -2.6401    0.0000 C   0  0  0  0  0  0  0  0  0 19  0  0
    3.5260   -1.2990    0.0000 O   0  0  0  0  0  0  0  0  0  3  0  0
    3.5260    1.2990    0.0000 O   0  0  0  0  0  0  0  0  0  5  0  0
   -3.5736    1.2902    0.0000 H   0  0  0  0  0  0  0  0  0  0  0  0
   -2.2458   -1.6317    0.0000 C   0  0  0  0  0  0  0  0  0 11  0  0
    1.3213   -4.0667    0.0000 S   0  0  0  0  0  0  0  0  0  2  0  0
   -0.5016   -3.2741    0.0000 H   0  0  0  0  0  0  0  0  0  0  0  0
    2.2844   -2.1766    0.0000 H   0  0  0  0  0  0  0  0  0  0  0  0
    5.0260    1.2990    0.0000 C   0  0  0  0  0  0  0  0  0 18  0  0
   -3.4593   -2.5134    0.0000 H   0  0  0  0  0  0  0  0  0  0  0  0
   -3.1275   -0.4182    0.0000 H   0  0  0  0  0  0  0  0  0  0  0  0
   -1.5317   -2.6146    0.0000 H   0  0  0  0  0  0  0  0  0  0  0  0
    0.3177   -5.1814    0.0000 C   0  0  0  0  0  0  0  0  0 22  0  0
    6.5260    1.2990    0.0000 C   0  0  0  0  0  0  0  0  0  8  0  0
    5.0260   -0.2010    0.0000 H   0  0  0  0  0  0  0  0  0  0  0  0
    5.1593    2.3844    0.0000 H   0  0  0  0  0  0  0  0  0  0  0  0
   -1.1496   -4.8695    0.0000 C   0  0  0  0  0  0  0  0  0 15  0  0
    0.7812   -6.6080    0.0000 C   0  0  0  0  0  0  0  0  0 16  0  0
    8.0260    1.2990    0.0000 H   0  0  0  0  0  0  0  0  0  0  0  0
    6.5260   -0.2010    0.0000 H   0  0  0  0  0  0  0  0  0  0  0  0
    6.5260    2.7990    0.0000 H   0  0  0  0  0  0  0  0  0  0  0  0
   -2.1533   -5.9843    0.0000 C   0  0  0  0  0  0  0  0  0 13  0  0
   -1.3814   -3.6769    0.0000 H   0  0  0  0  0  0  0  0  0  0  0  0
   -0.2225   -7.7227    0.0000 C   0  0  0  0  0  0  0  0  0 14  0  0
    2.2484   -6.9199    0.0000 H   0  0  0  0  0  0  0  0  0  0  0  0
   -1.6897   -7.4108    0.0000 C   0  0  0  0  0  0  0  0  0 12  0  0
   -3.6205   -5.6724    0.0000 H   0  0  0  0  0  0  0  0  0  0  0  0
    0.2410   -9.1493    0.0000 H   0  0  0  0  0  0  0  0  0  0  0  0
   -2.6934   -8.5256    0.0000 H   0  0  0  0  0  0  0  0  0  0  0  0
    4.4551    2.9806    0.0000 H   0  0  0  0  0  0  0  0  0  0  0  0
  1  2  1  0
  3  2  1  0
  2  4  1  0
  2  5  1  0
  6  3  2  0
  3  7  1  0
  8  6  1  0
  6  9  1  0
  7 10  1  0
  7 11  2  0
 12  8  2  0
  8 13  1  0
 14  9  2  0
  9 15  1  0
 10 16  1  0
 17 11  1  0
 11 14  1  0
 15 12  1  0
 12 18  1  0
 13 19  2  0
 13 20  1  0
 14 21  1  0
 15 22  1  0
 18 23  1  0
 18 24  1  0
 18 25  1  0
 20 26  1  0
 22 27  1  0
 22 28  1  0
 22 29  1  0
 23 30  1  0
 26 31  1  0
 26 32  1  0
 26 33  1  0
 30 34  2  0
 35 30  1  0
 31 36  1  0
 31 37  1  0
 31 38  1  0
 34 39  1  0
 34 40  1  0
 41 35  2  0
 35 42  1  0
 39 43  2  0
 39 44  1  0
 43 41  1  0
 41 45  1  0
 43 46  1  0
  1 47  1  0
M  END
>  <SMILES>  (4) 
CCOC(=O)c1c(CSc2ccccc2)n(C)c2cc(Br)c(O)c(CO)c12

>  <Molecular Weight>  (4) 
450.4

>  <Substrate_ID>  (4) 
MOL0073

>  <Substrate>  (4) 


>  <Substrate_SMILES>  (4) 
CCOC(=O)c1c(CSc2ccccc2)n(C)c2cc(Br)c(O)c(CN(C)C)c12

>  <Reaction>  (4) 
N-dealkylation_(tertiaryN-CH2-alkyl)

>  <Score>  (4) 
0.2248

>  <Reaction_Score>  (4) 
0.1969

>  <Bond_Score>  (4) 
0.2566

>  <Rank>  (4) 
4

>  <Subtype>  (4) 
3A4

>  <Subtype_Scores>  (4) 
[3A4] SOM_score: 0.2566, Reaction_score: 0.1969, Score: 0.2248


$$$$
