
     RDKit          2D

 33 36  0  0  0  0  0  0  0  0999 V2000
    1.2760    0.0000    0.0000 C   0  0  0  0  0  0  0  0  0 13  0  0
    0.3943    1.2135    0.0000 N   0  0  0  0  0  0  0  0  0  3  0  0
   -1.0323    0.7500    0.0000 C   0  0  0  0  0  0  0  0  0 12  0  0
    0.3943   -1.2135    0.0000 C   0  0  0  0  0  0  0  0  0 20  0  0
    2.3907    1.0037    0.0000 H   0  0  0  0  0  0  0  0  0  0  0  0
    2.6004   -0.7041    0.0000 H   0  0  0  0  0  0  0  0  0  0  0  0
    0.9214   -2.6179    0.0000 C   0  0  0  0  0  0  0  0  0 18  0  0
   -1.0323   -0.7500    0.0000 C   0  0  0  0  0  0  0  0  0 19  0  0
    1.8451   -1.5946    0.0000 H   0  0  0  0  0  0  0  0  0  0  0  0
    0.1520   -3.9056    0.0000 C   0  0  0  0  0  0  0  0  0 16  0  0
    2.4212   -2.6403    0.0000 C   0  0  0  0  0  0  0  0  0 11  0  0
   -2.2841   -1.5763    0.0000 C   0  0  0  0  0  0  0  0  0 17  0  0
   -2.4300   -0.2055    0.0000 H   0  0  0  0  0  0  0  0  0  0  0  0
    0.8825   -5.2157    0.0000 C   0  0  0  0  0  0  0  0  0  9  0  0
   -1.3344   -4.1069    0.0000 O   0  0  0  0  0  0  0  0  0  2  0  0
    3.1517   -3.9504    0.0000 C   0  0  0  0  0  0  0  0  0 14  0  0
    3.3418   -1.4560    0.0000 H   0  0  0  0  0  0  0  0  0  0  0  0
   -3.5107   -0.7129    0.0000 C   0  0  0  0  0  0  0  0  0 10  0  0
   -2.4186   -3.0703    0.0000 C   0  0  0  0  0  0  0  0  0 15  0  0
    2.3823   -5.2381    0.0000 C   0  0  0  0  0  0  0  0  0  7  0  0
    0.1131   -6.5033    0.0000 H   0  0  0  0  0  0  0  0  0  0  0  0
    4.6515   -3.9729    0.0000 Cl  0  0  0  0  0  0  0  0  0  1  0  0
   -4.8718   -1.3435    0.0000 C   0  0  0  0  0  0  0  0  0  6  0  0
   -3.5594    0.7863    0.0000 H   0  0  0  0  0  0  0  0  0  0  0  0
   -3.7796   -3.7008    0.0000 C   0  0  0  0  0  0  0  0  0  8  0  0
    3.1128   -6.5482    0.0000 H   0  0  0  0  0  0  0  0  0  0  0  0
   -5.0062   -2.8374    0.0000 C   0  0  0  0  0  0  0  0  0  5  0  0
   -6.0983   -0.4800    0.0000 H   0  0  0  0  0  0  0  0  0  0  0  0
   -3.9141   -5.1948    0.0000 H   0  0  0  0  0  0  0  0  0  0  0  0
   -6.3673   -3.4680    0.0000 H   0  0  0  0  0  0  0  0  0  0  0  0
   -2.5177    0.9588    0.0000 H   0  0  0  0  0  0  0  0  0  0  0  0
   -1.3442    2.2172    0.0000 H   0  0  0  0  0  0  0  0  0  0  0  0
    0.8578    2.6401    0.0000 H   0  0  0  0  0  0  0  0  0  0  0  0
  1  2  1  0
  2  3  1  0
  4  1  1  0
  1  5  1  0
  1  6  1  0
  7  4  1  0
  8  4  1  0
  4  9  1  6
 10  7  2  0
  7 11  1  0
  3  8  1  0
  8 12  1  0
  8 13  1  1
 14 10  1  0
 15 10  1  0
 11 16  2  0
 11 17  1  0
 12 18  2  0
 19 12  1  0
 20 14  2  0
 14 21  1  0
 19 15  1  0
 22 16  1  0
 16 20  1  0
 18 23  1  0
 18 24  1  0
 25 19  2  0
 20 26  1  0
 23 27  2  0
 23 28  1  0
 27 25  1  0
 25 29  1  0
 27 30  1  0
  3 31  1  0
  3 32  1  0
  2 33  1  0
M  END
>  <SMILES>  (1) 
Clc1ccc2c(c1)C1CNCC1c1ccccc1O2

>  <Molecular Weight>  (1) 
271.7

>  <Substrate_ID>  (1) 
MOL0042

>  <Substrate>  (1) 


>  <Substrate_SMILES>  (1) 
CN1CC2c3ccccc3Oc3ccc(Cl)cc3C2C1

>  <Reaction>  (1) 
N-demethylation_(R-N(CR)CH3),N-demethylation_(tertiary_amine)

>  <Score>  (1) 
0.8745

>  <Reaction_Score>  (1) 
0.9254

>  <Bond_Score>  (1) 
0.8263

>  <Rank>  (1) 
1

>  <Subtype>  (1) 
1A2, 2A6, 2B6, 2C8, 2C9, 2C19, 2D6, 2E1, 3A4

>  <Subtype_Scores>  (1) 
[1A2] SOM_score: 0.8039, Reaction_score: 0.9254, Score: 0.8625
[2A6] SOM_score: 0.3453, Reaction_score: 0.9254, Score: 0.5653
[2B6] SOM_score: 0.6865, Reaction_score: 0.9254, Score: 0.7970
[2C8] SOM_score: 0.6787, Reaction_score: 0.9254, Score: 0.7925
[2C9] SOM_score: 0.6053, Reaction_score: 0.9254, Score: 0.7485
[2C19] SOM_score: 0.7856, Reaction_score: 0.9254, Score: 0.8526
[2D6] SOM_score: 0.7943, Reaction_score: 0.9254, Score: 0.8574
[2E1] SOM_score: 0.3179, Reaction_score: 0.9254, Score: 0.5424
[3A4] SOM_score: 0.8263, Reaction_score: 0.9254, Score: 0.8745


$$$$

     RDKit          2D

 37 40  0  0  0  0  0  0  0  0999 V2000
    0.3943    1.2135    0.0000 C   0  0  0  0  0  0  0  0  0 19  0  0
    0.9214    2.6179    0.0000 C   0  0  0  0  0  0  0  0  0 17  0  0
    0.1520    3.9056    0.0000 C   0  0  0  0  0  0  0  0  0 15  0  0
    0.8825    5.2157    0.0000 C   0  0  0  0  0  0  0  0  0  8  0  0
    2.3823    5.2381    0.0000 C   0  0  0  0  0  0  0  0  0  5  0  0
    3.1128    6.5482    0.0000 O   0  0  0  0  0  0  0  0  0 21  0  0
    3.1517    3.9504    0.0000 C   0  0  0  0  0  0  0  0  0  6  0  0
    2.4212    2.6403    0.0000 C   0  0  0  0  0  0  0  0  0 10  0  0
    1.2760    0.0000    0.0000 C   0  0  0  0  0  0  0  0  0 12  0  0
   -1.0323    0.7500    0.0000 C   0  0  0  0  0  0  0  0  0 20  0  0
    1.8451    1.5946    0.0000 H   0  0  0  0  0  0  0  0  0  0  0  0
    0.3943   -1.2135    0.0000 N   0  0  0  0  0  0  0  0  0  3  0  0
    2.6004    0.7041    0.0000 H   0  0  0  0  0  0  0  0  0  0  0  0
    2.3907   -1.0037    0.0000 H   0  0  0  0  0  0  0  0  0  0  0  0
   -2.2841    1.5763    0.0000 C   0  0  0  0  0  0  0  0  0 18  0  0
   -1.0323   -0.7500    0.0000 C   0  0  0  0  0  0  0  0  0 13  0  0
   -2.4300    0.2055    0.0000 H   0  0  0  0  0  0  0  0  0  0  0  0
    0.8578   -2.6401    0.0000 C   0  0  0  0  0  0  0  0  0  4  0  0
   -2.4186    3.0703    0.0000 C   0  0  0  0  0  0  0  0  0 16  0  0
   -3.5107    0.7129    0.0000 C   0  0  0  0  0  0  0  0  0 11  0  0
   -1.3442   -2.2172    0.0000 H   0  0  0  0  0  0  0  0  0  0  0  0
   -2.5177   -0.9588    0.0000 H   0  0  0  0  0  0  0  0  0  0  0  0
   -0.5688   -3.1036    0.0000 H   0  0  0  0  0  0  0  0  0  0  0  0
    2.2844   -2.1766    0.0000 H   0  0  0  0  0  0  0  0  0  0  0  0
    1.3213   -4.0667    0.0000 H   0  0  0  0  0  0  0  0  0  0  0  0
   -3.7796    3.7008    0.0000 C   0  0  0  0  0  0  0  0  0  9  0  0
   -1.3344    4.1069    0.0000 O   0  0  0  0  0  0  0  0  0  2  0  0
   -4.8718    1.3435    0.0000 C   0  0  0  0  0  0  0  0  0 14  0  0
   -3.5594   -0.7863    0.0000 H   0  0  0  0  0  0  0  0  0  0  0  0
   -5.0062    2.8374    0.0000 C   0  0  0  0  0  0  0  0  0  7  0  0
   -3.9141    5.1948    0.0000 H   0  0  0  0  0  0  0  0  0  0  0  0
   -6.0983    0.4800    0.0000 Cl  0  0  0  0  0  0  0  0  0  1  0  0
   -6.3673    3.4680    0.0000 H   0  0  0  0  0  0  0  0  0  0  0  0
    0.1131    6.5033    0.0000 H   0  0  0  0  0  0  0  0  0  0  0  0
    4.6515    3.9729    0.0000 H   0  0  0  0  0  0  0  0  0  0  0  0
    3.3418    1.4560    0.0000 H   0  0  0  0  0  0  0  0  0  0  0  0
    4.6126    6.5707    0.0000 H   0  0  0  0  0  0  0  0  0  0  0  0
  1  2  1  0
  2  3  1  0
  3  4  2  0
  4  5  1  0
  5  6  1  0
  5  7  2  0
  7  8  1  0
  8  2  2  0
  9  1  1  0
  1 10  1  0
  1 11  1  1
 12  9  1  0
  9 13  1  0
  9 14  1  0
 15 10  1  0
 10 16  1  0
 10 17  1  6
 16 12  1  0
 12 18  1  0
 19 15  2  0
 15 20  1  0
 16 21  1  0
 16 22  1  0
 18 23  1  0
 18 24  1  0
 18 25  1  0
 26 19  1  0
 27 19  1  0
 20 28  2  0
 20 29  1  0
 30 26  2  0
 26 31  1  0
  3 27  1  0
 32 28  1  0
 28 30  1  0
 30 33  1  0
  4 34  1  0
  7 35  1  0
  8 36  1  0
  6 37  1  0
M  END
>  <SMILES>  (2) 
CN1CC2c3ccc(O)cc3Oc3ccc(Cl)cc3C2C1

>  <Molecular Weight>  (2) 
301.8

>  <Substrate_ID>  (2) 
MOL0042

>  <Substrate>  (2) 


>  <Substrate_SMILES>  (2) 
CN1CC2c3ccccc3Oc3ccc(Cl)cc3C2C1

>  <Reaction>  (2) 
aromatic_hydroxylation_(para_to_carbon),aromatic hydroxylation

>  <Score>  (2) 
0.3362

>  <Reaction_Score>  (2) 
0.3428

>  <Bond_Score>  (2) 
0.3296

>  <Rank>  (2) 
2

>  <Subtype>  (2) 
1A2, 2C8, 2C9, 3A4

>  <Subtype_Scores>  (2) 
[1A2] SOM_score: 0.3296, Reaction_score: 0.3428, Score: 0.3362
[2C8] SOM_score: 0.1612, Reaction_score: 0.3428, Score: 0.2351
[2C9] SOM_score: 0.2491, Reaction_score: 0.3428, Score: 0.2923
[3A4] SOM_score: 0.2237, Reaction_score: 0.3428, Score: 0.2769


$$$$
