
     RDKit          2D

 12 11  0  0  0  0  0  0  0  0999 V2000
    0.0000    0.0000    0.0000 C   0  0  0  0  0  0  0  0  0  9  0  0
   -0.0000   -1.5000    0.0000 O   0  0  0  0  0  0  0  0  0  8  0  0
   -1.5000    0.0000    0.0000 C   0  0  0  0  0  0  0  0  0 10  0  0
    0.0000    1.5000    0.0000 C   0  0  0  0  0  0  0  0  0 11  0  0
    1.5000    0.0000    0.0000 H   0  0  0  0  0  0  0  0  0  0  0  0
   -3.0000    0.0000    0.0000 F   0  0  0  0  0  0  0  0  0  1  0  0
   -1.6828   -1.4888    0.0000 F   0  0  0  0  0  0  0  0  0  2  0  0
   -1.6080    0.8791    0.0000 F   0  0  0  0  0  0  0  0  0  3  0  0
    0.0000    3.0000    0.0000 F   0  0  0  0  0  0  0  0  0  4  0  0
   -0.8791    1.6080    0.0000 F   0  0  0  0  0  0  0  0  0  5  0  0
    1.5000    1.5000    0.0000 F   0  0  0  0  0  0  0  0  0  6  0  0
   -1.1979   -2.4028    0.0000 H   0  0  0  0  0  0  0  0  0  0  0  0
  1  2  1  0
  3  1  1  0
  1  4  1  0
  1  5  1  6
  3  6  1  6
  3  7  1  0
  3  8  1  0
  4  9  1  1
  4 10  1  0
  4 11  1  0
  2 12  1  0
M  END
>  <SMILES>  (1) 
OC(C(F)(F)F)C(F)(F)F

>  <Molecular Weight>  (1) 
168.0

>  <Substrate_ID>  (1) 
MOL0084

>  <Substrate>  (1) 


>  <Substrate_SMILES>  (1) 
FCOC(C(F)(F)F)C(F)(F)F

>  <Reaction>  (1) 
O-dealkylation_(ether)

>  <Score>  (1) 
0.273

>  <Reaction_Score>  (1) 
0.2039

>  <Bond_Score>  (1) 
0.3656

>  <Rank>  (1) 
1

>  <Subtype>  (1) 
2A6, 2B6, 2E1

>  <Subtype_Scores>  (1) 
[2A6] SOM_score: 0.3438, Reaction_score: 0.2039, Score: 0.2648
[2B6] SOM_score: 0.1997, Reaction_score: 0.2039, Score: 0.2018
[2E1] SOM_score: 0.3656, Reaction_score: 0.2039, Score: 0.2730


$$$$

     RDKit          2D

  6  5  0  0  0  0  0  0  0  0999 V2000
    1.5000    0.0000    0.0000 O   0  0  0  0  0  0  0  0  0 13  0  0
    0.0000    0.0000    0.0000 C   0  0  0  0  0  0  0  0  0 12  0  0
   -1.5000    0.0000    0.0000 F   0  0  0  0  0  0  0  0  0  7  0  0
    0.0000    1.5000    0.0000 H   0  0  0  0  0  0  0  0  0  0  0  0
   -0.0000   -1.5000    0.0000 H   0  0  0  0  0  0  0  0  0  0  0  0
    2.2500   -1.2990    0.0000 H   0  0  0  0  0  0  0  0  0  0  0  0
  1  2  1  0
  2  3  1  0
  2  4  1  0
  2  5  1  0
  1  6  1  0
M  END
>  <SMILES>  (2) 
OCF

>  <Molecular Weight>  (2) 
50.0

>  <Substrate_ID>  (2) 
MOL0084

>  <Substrate>  (2) 


>  <Substrate_SMILES>  (2) 
FCOC(C(F)(F)F)C(F)(F)F

>  <Reaction>  (2) 
O-dealkylation_(ether)

>  <Score>  (2) 
0.273

>  <Reaction_Score>  (2) 
0.2039

>  <Bond_Score>  (2) 
0.3656

>  <Rank>  (2) 
1

>  <Subtype>  (2) 
2A6, 2B6, 2E1

>  <Subtype_Scores>  (2) 
[2A6] SOM_score: 0.3438, Reaction_score: 0.2039, Score: 0.2648
[2B6] SOM_score: 0.1997, Reaction_score: 0.2039, Score: 0.2018
[2E1] SOM_score: 0.3656, Reaction_score: 0.2039, Score: 0.2730


$$$$
