
     RDKit          2D

 14 14  0  0  0  0  0  0  0  0999 V2000
    0.8660    0.0000    0.0000 C   0  0  0  0  0  0  0  0  0  3  0  0
    1.8302   -1.1491    0.0000 C   0  0  0  0  0  0  0  0  0  5  0  0
    0.3530   -1.4095    0.0000 O   0  0  0  0  0  0  0  0  0  6  0  0
    1.8302    1.1491    0.0000 C   0  0  0  0  0  0  0  0  0  1  0  0
   -0.4330    0.7500    0.0000 H   0  0  0  0  0  0  0  0  0  0  0  0
    1.3172    2.5586    0.0000 C   0  0  0  0  0  0  0  0  0  2  0  0
    3.3074    0.8886    0.0000 C   0  0  0  0  0  0  0  0  0  4  0  0
    0.8041    3.9681    0.0000 H   0  0  0  0  0  0  0  0  0  0  0  0
    2.7267    3.0716    0.0000 H   0  0  0  0  0  0  0  0  0  0  0  0
   -0.0924    2.0456    0.0000 H   0  0  0  0  0  0  0  0  0  0  0  0
    4.2716    2.0377    0.0000 H   0  0  0  0  0  0  0  0  0  0  0  0
    3.8590   -0.1940    0.0000 H   0  0  0  0  0  0  0  0  0  0  0  0
    2.3432   -2.5586    0.0000 H   0  0  0  0  0  0  0  0  0  0  0  0
    2.9486   -0.6744    0.0000 H   0  0  0  0  0  0  0  0  0  0  0  0
  1  2  1  0
  2  3  1  0
  3  1  1  0
  4  1  1  0
  1  5  1  0
  4  6  1  0
  4  7  2  0
  6  8  1  0
  6  9  1  0
  6 10  1  0
  7 11  1  0
  7 12  1  0
  2 13  1  0
  2 14  1  0
M  END
>  <SMILES>  (1) 
C=C(C)C1CO1

>  <Molecular Weight>  (1) 
84.1

>  <Substrate_ID>  (1) 
MOL0086

>  <Substrate>  (1) 


>  <Substrate_SMILES>  (1) 
C=CC(=C)C

>  <Reaction>  (1) 
epoxidation

>  <Score>  (1) 
0.2903

>  <Reaction_Score>  (1) 
0.1338

>  <Bond_Score>  (1) 
0.6297

>  <Rank>  (1) 
1

>  <Subtype>  (1) 
2A6, 2E1

>  <Subtype_Scores>  (1) 
[2A6] SOM_score: 0.4360, Reaction_score: 0.1338, Score: 0.2415
[2E1] SOM_score: 0.6297, Reaction_score: 0.1338, Score: 0.2903


$$$$

     RDKit          2D

 14 14  0  0  0  0  0  0  0  0999 V2000
    0.8660    0.0000    0.0000 C   0  0  0  0  0  0  0  0  0  1  0  0
   -0.4330    0.7500    0.0000 C   0  0  0  0  0  0  0  0  0  4  0  0
   -0.4330   -0.7500    0.0000 O   0  0  0  0  0  0  0  0  0  6  0  0
    1.8302   -1.1491    0.0000 C   0  0  0  0  0  0  0  0  0  2  0  0
    1.8302    1.1491    0.0000 C   0  0  0  0  0  0  0  0  0  3  0  0
    2.7944   -2.2981    0.0000 H   0  0  0  0  0  0  0  0  0  0  0  0
    2.9624   -0.4138    0.0000 H   0  0  0  0  0  0  0  0  0  0  0  0
    0.6811   -2.1132    0.0000 H   0  0  0  0  0  0  0  0  0  0  0  0
    3.3074    0.8886    0.0000 C   0  0  0  0  0  0  0  0  0  5  0  0
    1.3172    2.5586    0.0000 H   0  0  0  0  0  0  0  0  0  0  0  0
    3.9203   -0.3142    0.0000 H   0  0  0  0  0  0  0  0  0  0  0  0
    4.2716    2.0377    0.0000 H   0  0  0  0  0  0  0  0  0  0  0  0
   -1.9102    1.0105    0.0000 H   0  0  0  0  0  0  0  0  0  0  0  0
    0.0800    2.1595    0.0000 H   0  0  0  0  0  0  0  0  0  0  0  0
  1  2  1  0
  2  3  1  0
  3  1  1  0
  1  4  1  0
  1  5  1  0
  4  6  1  0
  4  7  1  0
  4  8  1  0
  5  9  2  0
  5 10  1  0
  9 11  1  0
  9 12  1  0
  2 13  1  0
  2 14  1  0
M  END
>  <SMILES>  (2) 
C=CC1(C)CO1

>  <Molecular Weight>  (2) 
84.1

>  <Substrate_ID>  (2) 
MOL0086

>  <Substrate>  (2) 


>  <Substrate_SMILES>  (2) 
C=CC(=C)C

>  <Reaction>  (2) 
epoxidation

>  <Score>  (2) 
0.1029

>  <Reaction_Score>  (2) 
0.0417

>  <Bond_Score>  (2) 
0.2538

>  <Rank>  (2) 
2

>  <Subtype>  (2) 
2E1

>  <Subtype_Scores>  (2) 
[2E1] SOM_score: 0.2538, Reaction_score: 0.0417, Score: 0.1029


$$$$
