
     RDKit          2D

 48 51  0  0  0  0  0  0  0  0999 V2000
    1.2760    0.0000    0.0000 C   0  0  0  0  0  0  0  0  0 26  0  0
    2.7760    0.0000    0.0000 C   0  0  0  0  0  0  0  0  0  9  0  0
    4.2760    0.0000    0.0000 O   0  0  0  0  0  0  0  0  0 29  0  0
    0.3943    1.2135    0.0000 C   0  0  0  0  0  0  0  0  0 17  0  0
    0.3943   -1.2135    0.0000 N   0  0  0  0  0  0  0  0  0  7  0  0
   -1.0323    0.7500    0.0000 N   0  0  0  0  0  0  0  0  0  6  0  0
    0.8578    2.6401    0.0000 H   0  0  0  0  0  0  0  0  0  0  0  0
   -1.0323   -0.7500    0.0000 C   0  0  0  0  0  0  0  0  0 27  0  0
    0.9214   -2.6179    0.0000 C   0  0  0  0  0  0  0  0  0 25  0  0
   -2.2841   -1.5763    0.0000 C   0  0  0  0  0  0  0  0  0 28  0  0
    2.4212   -2.6403    0.0000 C   0  0  0  0  0  0  0  0  0 16  0  0
    0.1520   -3.9056    0.0000 C   0  0  0  0  0  0  0  0  0 24  0  0
   -2.4186   -3.0703    0.0000 N   0  0  0  0  0  0  0  0  0  4  0  0
   -2.8112   -0.1720    0.0000 C   0  0  0  0  0  0  0  0  0 19  0  0
   -3.7706   -1.7777    0.0000 H   0  0  0  0  0  0  0  0  0  0  0  0
    3.1517   -3.9504    0.0000 C   0  0  0  0  0  0  0  0  0 13  0  0
    3.3418   -1.4560    0.0000 H   0  0  0  0  0  0  0  0  0  0  0  0
    0.8825   -5.2157    0.0000 C   0  0  0  0  0  0  0  0  0 15  0  0
   -1.3344   -4.1069    0.0000 C   0  0  0  0  0  0  0  0  0 21  0  0
   -3.3383    1.2324    0.0000 C   0  0  0  0  0  0  0  0  0 18  0  0
   -4.2156   -0.6991    0.0000 H   0  0  0  0  0  0  0  0  0  0  0  0
   -1.9108    0.4485    0.0000 H   0  0  0  0  0  0  0  0  0  0  0  0
    2.3823   -5.2381    0.0000 C   0  0  0  0  0  0  0  0  0 22  0  0
    4.6515   -3.9729    0.0000 H   0  0  0  0  0  0  0  0  0  0  0  0
    0.5601   -5.9447    0.0000 H   0  0  0  0  0  0  0  0  0  0  0  0
   -1.7979   -5.5335    0.0000 C   0  0  0  0  0  0  0  0  0 23  0  0
   -3.8653    2.6367    0.0000 C   0  0  0  0  0  0  0  0  0 20  0  0
   -1.9339    1.7594    0.0000 H   0  0  0  0  0  0  0  0  0  0  0  0
   -4.7426    0.7053    0.0000 H   0  0  0  0  0  0  0  0  0  0  0  0
    3.1128   -6.5482    0.0000 Br  0  0  0  0  0  0  0  0  0  1  0  0
   -3.2652   -5.8454    0.0000 N   0  0  0  0  0  0  0  0  0  5  0  0
   -0.7942   -6.6482    0.0000 C   0  0  0  0  0  0  0  0  0 14  0  0
   -2.9127    3.7953    0.0000 O   0  0  0  0  0  0  0  0  0  2  0  0
   -5.3451    2.8824    0.0000 O   0  0  0  0  0  0  0  0  0  3  0  0
   -3.7287   -7.2719    0.0000 C   0  0  0  0  0  0  0  0  0 12  0  0
   -1.2578   -8.0748    0.0000 C   0  0  0  0  0  0  0  0  0 11  0  0
   -0.0001   -6.5787    0.0000 H   0  0  0  0  0  0  0  0  0  0  0  0
   -5.8721    4.2868    0.0000 C   0  0  0  0  0  0  0  0  0  8  0  0
   -2.7250   -8.3867    0.0000 C   0  0  0  0  0  0  0  0  0 10  0  0
   -5.1959   -7.5838    0.0000 H   0  0  0  0  0  0  0  0  0  0  0  0
   -0.2541   -9.1895    0.0000 H   0  0  0  0  0  0  0  0  0  0  0  0
   -6.3992    5.6911    0.0000 H   0  0  0  0  0  0  0  0  0  0  0  0
   -7.2765    3.7597    0.0000 H   0  0  0  0  0  0  0  0  0  0  0  0
   -4.4678    4.8139    0.0000 H   0  0  0  0  0  0  0  0  0  0  0  0
   -3.1885   -9.8132    0.0000 H   0  0  0  0  0  0  0  0  0  0  0  0
    2.7760    1.5000    0.0000 H   0  0  0  0  0  0  0  0  0  0  0  0
    2.9588   -1.4888    0.0000 H   0  0  0  0  0  0  0  0  0  0  0  0
    5.0260    1.2990    0.0000 H   0  0  0  0  0  0  0  0  0  0  0  0
  1  2  1  0
  2  3  1  0
  4  1  2  0
  1  5  1  0
  6  4  1  0
  4  7  1  0
  5  8  1  0
  5  9  1  0
  8  6  2  0
 10  8  1  0
 11  9  2  0
  9 12  1  0
 13 10  1  0
 10 14  1  0
 10 15  1  6
 16 11  1  0
 11 17  1  0
 12 18  2  0
 12 19  1  0
 19 13  2  0
 14 20  1  0
 14 21  1  0
 14 22  1  0
 23 16  2  0
 16 24  1  0
 18 23  1  0
 18 25  1  0
 19 26  1  0
 20 27  1  0
 20 28  1  0
 20 29  1  0
 30 23  1  0
 26 31  2  0
 32 26  1  0
 27 33  2  0
 27 34  1  0
 31 35  1  0
 36 32  2  0
 32 37  1  0
 34 38  1  0
 35 39  2  0
 35 40  1  0
 39 36  1  0
 36 41  1  0
 38 42  1  0
 38 43  1  0
 38 44  1  0
 39 45  1  0
  2 46  1  0
  2 47  1  0
  3 48  1  0
M  END
>  <SMILES>  (1) 
COC(=O)CCC1N=C(c2ccccn2)c2cc(Br)ccc2-n2c(CO)cnc21

>  <Molecular Weight>  (1) 
455.3

>  <Substrate_ID>  (1) 
MOL0075

>  <Substrate>  (1) 


>  <Substrate_SMILES>  (1) 
COC(=O)CCC1N=C(c2ccccn2)c2cc(Br)ccc2-n2c(C)cnc21

>  <Reaction>  (1) 
benzylic_hydroxylation_(c-CH3),aliphatic hydroxylation

>  <Score>  (1) 
0.4281

>  <Reaction_Score>  (1) 
0.4435

>  <Bond_Score>  (1) 
0.4132

>  <Rank>  (1) 
1

>  <Subtype>  (1) 
2C8, 2C9, 3A4

>  <Subtype_Scores>  (1) 
[2C8] SOM_score: 0.1957, Reaction_score: 0.4435, Score: 0.2947
[2C9] SOM_score: 0.2597, Reaction_score: 0.4435, Score: 0.3394
[3A4] SOM_score: 0.4132, Reaction_score: 0.4435, Score: 0.4281


$$$$
