
     RDKit          2D

 38 40  0  0  0  0  0  0  0  0999 V2000
    0.3943    1.2135    0.0000 C   0  0  0  0  0  0  0  0  0 16  0  0
    1.2760   -0.0000    0.0000 C   0  0  0  0  0  0  0  0  0 10  0  0
    2.3907    1.0037    0.0000 O   0  0  0  0  0  0  0  0  0 19  0  0
    0.3943   -1.2135    0.0000 C   0  0  0  0  0  0  0  0  0  8  0  0
   -1.0323    0.7500    0.0000 C   0  0  0  0  0  0  0  0  0 14  0  0
    0.7062    2.6807    0.0000 C   0  0  0  0  0  0  0  0  0 15  0  0
   -2.1470    1.7537    0.0000 C   0  0  0  0  0  0  0  0  0  6  0  0
   -1.0323   -0.7500    0.0000 O   0  0  0  0  0  0  0  0  0  2  0  0
    2.1328    3.1443    0.0000 C   0  0  0  0  0  0  0  0  0 18  0  0
   -0.4086    3.6844    0.0000 C   0  0  0  0  0  0  0  0  0  7  0  0
   -1.8351    3.2209    0.0000 C   0  0  0  0  0  0  0  0  0  5  0  0
   -3.5736    1.2902    0.0000 H   0  0  0  0  0  0  0  0  0  0  0  0
    3.3148    4.0678    0.0000 C   0  0  0  0  0  0  0  0  0 12  0  0
    1.9240    4.6297    0.0000 C   0  0  0  0  0  0  0  0  0 17  0  0
    2.8370    1.8199    0.0000 H   0  0  0  0  0  0  0  0  0  0  0  0
   -0.3027    4.8948    0.0000 H   0  0  0  0  0  0  0  0  0  0  0  0
   -2.9499    4.2246    0.0000 H   0  0  0  0  0  0  0  0  0  0  0  0
    4.4295    3.0641    0.0000 H   0  0  0  0  0  0  0  0  0  0  0  0
    4.1644    5.1169    0.0000 H   0  0  0  0  0  0  0  0  0  0  0  0
    2.2359    6.0969    0.0000 C   0  0  0  0  0  0  0  0  0 11  0  0
    0.7240    4.8198    0.0000 H   0  0  0  0  0  0  0  0  0  0  0  0
    2.5477    7.5641    0.0000 N   0  0  0  0  0  0  0  0  0  3  0  0
    0.7686    6.4088    0.0000 H   0  0  0  0  0  0  0  0  0  0  0  0
    3.5807    5.9793    0.0000 H   0  0  0  0  0  0  0  0  0  0  0  0
    3.9743    8.0276    0.0000 C   0  0  0  0  0  0  0  0  0 13  0  0
    1.4330    8.5678    0.0000 H   0  0  0  0  0  0  0  0  0  0  0  0
    5.0890    7.0239    0.0000 O   0  0  0  0  0  0  0  0  0  1  0  0
    4.2862    9.4949    0.0000 C   0  0  0  0  0  0  0  0  0  9  0  0
    4.5980   10.9621    0.0000 C   0  0  0  0  0  0  0  0  0  4  0  0
    5.7534    9.1830    0.0000 H   0  0  0  0  0  0  0  0  0  0  0  0
    2.8190    9.8067    0.0000 H   0  0  0  0  0  0  0  0  0  0  0  0
    4.9099   12.4293    0.0000 H   0  0  0  0  0  0  0  0  0  0  0  0
    3.1308   11.2740    0.0000 H   0  0  0  0  0  0  0  0  0  0  0  0
    6.0653   10.6502    0.0000 H   0  0  0  0  0  0  0  0  0  0  0  0
    2.3907   -1.0037    0.0000 H   0  0  0  0  0  0  0  0  0  0  0  0
    1.6933   -1.9635    0.0000 H   0  0  0  0  0  0  0  0  0  0  0  0
   -0.2158   -2.5838    0.0000 H   0  0  0  0  0  0  0  0  0  0  0  0
    3.8173    0.5402    0.0000 H   0  0  0  0  0  0  0  0  0  0  0  0
  1  2  1  0
  2  3  1  0
  2  4  1  0
  5  1  2  0
  1  6  1  0
  7  5  1  0
  8  5  1  0
  9  6  1  0
  6 10  2  0
 11  7  2  0
  7 12  1  0
  4  8  1  0
 13  9  1  0
  9 14  1  0
  9 15  1  6
 10 11  1  0
 10 16  1  0
 11 17  1  0
 14 13  1  0
 13 18  1  0
 13 19  1  0
 20 14  1  0
 14 21  1  1
 22 20  1  0
 20 23  1  0
 20 24  1  0
 25 22  1  0
 22 26  1  0
 27 25  2  0
 25 28  1  0
 28 29  1  0
 28 30  1  0
 28 31  1  0
 29 32  1  0
 29 33  1  0
 29 34  1  0
  2 35  1  0
  4 36  1  0
  4 37  1  0
  3 38  1  0
M  END
>  <SMILES>  (1) 
CCC(=O)NCC1CC1c1cccc2c1C(O)CO2

>  <Molecular Weight>  (1) 
261.3

>  <Substrate_ID>  (1) 
MOL0004

>  <Substrate>  (1) 


>  <Substrate_SMILES>  (1) 
CCC(=O)NCC1CC1c1cccc2c1CCO2

>  <Reaction>  (1) 
benzylic_hydroxylation_(c-CH2-CR),aliphatic hydroxylation

>  <Score>  (1) 
0.457

>  <Reaction_Score>  (1) 
0.5087

>  <Bond_Score>  (1) 
0.4105

>  <Rank>  (1) 
1

>  <Subtype>  (1) 
1A2, 2B6, 2C8, 2C9, 2C19, 2D6, 3A4

>  <Subtype_Scores>  (1) 
[1A2] SOM_score: 0.3817, Reaction_score: 0.5087, Score: 0.4407
[2B6] SOM_score: 0.1884, Reaction_score: 0.5087, Score: 0.3095
[2C8] SOM_score: 0.1775, Reaction_score: 0.5087, Score: 0.3005
[2C9] SOM_score: 0.3025, Reaction_score: 0.5087, Score: 0.3923
[2C19] SOM_score: 0.3580, Reaction_score: 0.5087, Score: 0.4267
[2D6] SOM_score: 0.2687, Reaction_score: 0.5087, Score: 0.3697
[3A4] SOM_score: 0.4105, Reaction_score: 0.5087, Score: 0.4570


$$$$

     RDKit          2D

 38 40  0  0  0  0  0  0  0  0999 V2000
    1.2760    0.0000    0.0000 C   0  0  0  0  0  0  0  0  0  8  0  0
    2.3907    1.0037    0.0000 O   0  0  0  0  0  0  0  0  0 19  0  0
    3.8173    0.5402    0.0000 H   0  0  0  0  0  0  0  0  0  0  0  0
    0.3943    1.2135    0.0000 C   0  0  0  0  0  0  0  0  0 10  0  0
    0.3943   -1.2135    0.0000 O   0  0  0  0  0  0  0  0  0  2  0  0
    2.3907   -1.0037    0.0000 H   0  0  0  0  0  0  0  0  0  0  0  0
   -1.0323    0.7500    0.0000 C   0  0  0  0  0  0  0  0  0 16  0  0
   -0.2158    2.5838    0.0000 H   0  0  0  0  0  0  0  0  0  0  0  0
    1.6933    1.9635    0.0000 H   0  0  0  0  0  0  0  0  0  0  0  0
   -1.0323   -0.7500    0.0000 C   0  0  0  0  0  0  0  0  0 14  0  0
   -2.3313    1.5000    0.0000 C   0  0  0  0  0  0  0  0  0 15  0  0
   -2.3313   -1.5000    0.0000 C   0  0  0  0  0  0  0  0  0  6  0  0
   -2.3313    3.0000    0.0000 C   0  0  0  0  0  0  0  0  0 18  0  0
   -3.6304    0.7500    0.0000 C   0  0  0  0  0  0  0  0  0  7  0  0
   -3.6304   -0.7500    0.0000 C   0  0  0  0  0  0  0  0  0  5  0  0
   -2.3313   -3.0000    0.0000 H   0  0  0  0  0  0  0  0  0  0  0  0
   -2.8444    4.4095    0.0000 C   0  0  0  0  0  0  0  0  0 12  0  0
   -3.8085    3.2605    0.0000 C   0  0  0  0  0  0  0  0  0 17  0  0
   -0.8541    3.2605    0.0000 H   0  0  0  0  0  0  0  0  0  0  0  0
   -4.7488    1.2247    0.0000 H   0  0  0  0  0  0  0  0  0  0  0  0
   -4.9294   -1.5000    0.0000 H   0  0  0  0  0  0  0  0  0  0  0  0
   -1.5453    5.1595    0.0000 H   0  0  0  0  0  0  0  0  0  0  0  0
   -3.5796    5.5418    0.0000 H   0  0  0  0  0  0  0  0  0  0  0  0
   -5.1076    4.0105    0.0000 C   0  0  0  0  0  0  0  0  0 11  0  0
   -4.3602    2.1779    0.0000 H   0  0  0  0  0  0  0  0  0  0  0  0
   -6.4066    4.7605    0.0000 N   0  0  0  0  0  0  0  0  0  3  0  0
   -5.8576    2.7114    0.0000 H   0  0  0  0  0  0  0  0  0  0  0  0
   -4.5801    5.2532    0.0000 H   0  0  0  0  0  0  0  0  0  0  0  0
   -6.4066    6.2605    0.0000 C   0  0  0  0  0  0  0  0  0 13  0  0
   -7.7057    4.0105    0.0000 H   0  0  0  0  0  0  0  0  0  0  0  0
   -5.1076    7.0105    0.0000 O   0  0  0  0  0  0  0  0  0  1  0  0
   -7.7057    7.0105    0.0000 C   0  0  0  0  0  0  0  0  0  9  0  0
   -9.0047    7.7605    0.0000 C   0  0  0  0  0  0  0  0  0  4  0  0
   -6.9557    8.3095    0.0000 H   0  0  0  0  0  0  0  0  0  0  0  0
   -8.4557    5.7114    0.0000 H   0  0  0  0  0  0  0  0  0  0  0  0
  -10.3037    8.5105    0.0000 H   0  0  0  0  0  0  0  0  0  0  0  0
   -9.7547    6.4614    0.0000 H   0  0  0  0  0  0  0  0  0  0  0  0
   -8.2547    9.0595    0.0000 H   0  0  0  0  0  0  0  0  0  0  0  0
  1  2  1  0
  2  3  1  0
  4  1  1  0
  1  5  1  0
  1  6  1  0
  7  4  1  0
  4  8  1  0
  4  9  1  0
  5 10  1  0
 10  7  2  0
  7 11  1  0
 12 10  1  0
 13 11  1  0
 11 14  2  0
 15 12  2  0
 12 16  1  0
 17 13  1  0
 13 18  1  0
 13 19  1  6
 14 15  1  0
 14 20  1  0
 15 21  1  0
 18 17  1  0
 17 22  1  0
 17 23  1  0
 24 18  1  0
 18 25  1  1
 26 24  1  0
 24 27  1  0
 24 28  1  0
 29 26  1  0
 26 30  1  0
 31 29  2  0
 29 32  1  0
 32 33  1  0
 32 34  1  0
 32 35  1  0
 33 36  1  0
 33 37  1  0
 33 38  1  0
M  END
>  <SMILES>  (2) 
CCC(=O)NCC1CC1c1cccc2c1CC(O)O2

>  <Molecular Weight>  (2) 
261.3

>  <Substrate_ID>  (2) 
MOL0004

>  <Substrate>  (2) 


>  <Substrate_SMILES>  (2) 
CCC(=O)NCC1CC1c1cccc2c1CCO2

>  <Reaction>  (2) 
aliphatic hydroxylation

>  <Score>  (2) 
0.4541

>  <Reaction_Score>  (2) 
0.4483

>  <Bond_Score>  (2) 
0.4601

>  <Rank>  (2) 
2

>  <Subtype>  (2) 
1A2, 2B6, 2C8, 2C9, 2C19, 2D6, 3A4

>  <Subtype_Scores>  (2) 
[1A2] SOM_score: 0.4601, Reaction_score: 0.4483, Score: 0.4541
[2B6] SOM_score: 0.2822, Reaction_score: 0.4483, Score: 0.3557
[2C8] SOM_score: 0.3093, Reaction_score: 0.4483, Score: 0.3724
[2C9] SOM_score: 0.3356, Reaction_score: 0.4483, Score: 0.3879
[2C19] SOM_score: 0.4505, Reaction_score: 0.4483, Score: 0.4494
[2D6] SOM_score: 0.3127, Reaction_score: 0.4483, Score: 0.3744
[3A4] SOM_score: 0.4392, Reaction_score: 0.4483, Score: 0.4437


$$$$

     RDKit          2D

 38 40  0  0  0  0  0  0  0  0999 V2000
    2.0567   11.5023    0.0000 C   0  0  0  0  0  0  0  0  0  4  0  0
    1.7449   10.0350    0.0000 C   0  0  0  0  0  0  0  0  0  9  0  0
    0.2777   10.3469    0.0000 O   0  0  0  0  0  0  0  0  0 19  0  0
    1.4330    8.5678    0.0000 C   0  0  0  0  0  0  0  0  0 13  0  0
    2.3686   12.9695    0.0000 H   0  0  0  0  0  0  0  0  0  0  0  0
    3.5240   11.1904    0.0000 H   0  0  0  0  0  0  0  0  0  0  0  0
    0.6385   11.9906    0.0000 H   0  0  0  0  0  0  0  0  0  0  0  0
    3.2121    9.7232    0.0000 H   0  0  0  0  0  0  0  0  0  0  0  0
    0.0064    8.1043    0.0000 O   0  0  0  0  0  0  0  0  0  1  0  0
    2.5477    7.5641    0.0000 N   0  0  0  0  0  0  0  0  0  3  0  0
    2.2359    6.0969    0.0000 C   0  0  0  0  0  0  0  0  0 11  0  0
    3.9743    8.0276    0.0000 H   0  0  0  0  0  0  0  0  0  0  0  0
    1.9240    4.6297    0.0000 C   0  0  0  0  0  0  0  0  0 17  0  0
    3.5807    5.9793    0.0000 H   0  0  0  0  0  0  0  0  0  0  0  0
    0.7686    6.4088    0.0000 H   0  0  0  0  0  0  0  0  0  0  0  0
    3.3148    4.0678    0.0000 C   0  0  0  0  0  0  0  0  0 12  0  0
    2.1328    3.1443    0.0000 C   0  0  0  0  0  0  0  0  0 18  0  0
    0.7240    4.8198    0.0000 H   0  0  0  0  0  0  0  0  0  0  0  0
    4.4295    3.0641    0.0000 H   0  0  0  0  0  0  0  0  0  0  0  0
    4.1644    5.1169    0.0000 H   0  0  0  0  0  0  0  0  0  0  0  0
    0.7062    2.6807    0.0000 C   0  0  0  0  0  0  0  0  0 15  0  0
    2.8370    1.8199    0.0000 H   0  0  0  0  0  0  0  0  0  0  0  0
   -0.4086    3.6844    0.0000 C   0  0  0  0  0  0  0  0  0  7  0  0
    0.3943    1.2135    0.0000 C   0  0  0  0  0  0  0  0  0 16  0  0
   -1.8351    3.2209    0.0000 C   0  0  0  0  0  0  0  0  0  5  0  0
   -0.3027    4.8948    0.0000 H   0  0  0  0  0  0  0  0  0  0  0  0
   -1.0323    0.7500    0.0000 C   0  0  0  0  0  0  0  0  0 14  0  0
    1.2760    0.0000    0.0000 C   0  0  0  0  0  0  0  0  0 10  0  0
   -2.1470    1.7537    0.0000 C   0  0  0  0  0  0  0  0  0  6  0  0
   -2.9499    4.2246    0.0000 H   0  0  0  0  0  0  0  0  0  0  0  0
   -1.0323   -0.7500    0.0000 O   0  0  0  0  0  0  0  0  0  2  0  0
    0.3943   -1.2135    0.0000 C   0  0  0  0  0  0  0  0  0  8  0  0
    2.3907    1.0037    0.0000 H   0  0  0  0  0  0  0  0  0  0  0  0
    2.3907   -1.0037    0.0000 H   0  0  0  0  0  0  0  0  0  0  0  0
   -3.5736    1.2902    0.0000 H   0  0  0  0  0  0  0  0  0  0  0  0
    1.6933   -1.9635    0.0000 H   0  0  0  0  0  0  0  0  0  0  0  0
   -0.2158   -2.5838    0.0000 H   0  0  0  0  0  0  0  0  0  0  0  0
   -0.3563   11.7063    0.0000 H   0  0  0  0  0  0  0  0  0  0  0  0
  1  2  1  0
  2  3  1  0
  2  4  1  0
  1  5  1  0
  1  6  1  0
  1  7  1  0
  2  8  1  0
  9  4  2  0
  4 10  1  0
 10 11  1  0
 10 12  1  0
 11 13  1  0
 11 14  1  0
 11 15  1  0
 13 16  1  0
 17 13  1  0
 13 18  1  1
 16 17  1  0
 16 19  1  0
 16 20  1  0
 17 21  1  0
 17 22  1  6
 21 23  2  0
 24 21  1  0
 23 25  1  0
 23 26  1  0
 27 24  2  0
 24 28  1  0
 25 29  2  0
 25 30  1  0
 29 27  1  0
 31 27  1  0
 28 32  1  0
 28 33  1  0
 28 34  1  0
 29 35  1  0
 32 31  1  0
 32 36  1  0
 32 37  1  0
  3 38  1  0
M  END
>  <SMILES>  (3) 
CC(O)C(=O)NCC1CC1c1cccc2c1CCO2

>  <Molecular Weight>  (3) 
261.3

>  <Substrate_ID>  (3) 
MOL0004

>  <Substrate>  (3) 


>  <Substrate_SMILES>  (3) 
CCC(=O)NCC1CC1c1cccc2c1CCO2

>  <Reaction>  (3) 
aliphatic_hydroxylation_(sec_carbon_next_to_SP2,not_in_a_ring),aliphatic hydroxylation

>  <Score>  (3) 
0.3397

>  <Reaction_Score>  (3) 
0.346

>  <Bond_Score>  (3) 
0.3335

>  <Rank>  (3) 
3

>  <Subtype>  (3) 
1A2, 2B6, 2C8, 2C9, 2C19, 2D6, 3A4

>  <Subtype_Scores>  (3) 
[1A2] SOM_score: 0.2872, Reaction_score: 0.3460, Score: 0.3153
[2B6] SOM_score: 0.2140, Reaction_score: 0.3460, Score: 0.2721
[2C8] SOM_score: 0.2106, Reaction_score: 0.3460, Score: 0.2700
[2C9] SOM_score: 0.3049, Reaction_score: 0.3460, Score: 0.3249
[2C19] SOM_score: 0.3335, Reaction_score: 0.3460, Score: 0.3397
[2D6] SOM_score: 0.2272, Reaction_score: 0.3460, Score: 0.2804
[3A4] SOM_score: 0.3234, Reaction_score: 0.3460, Score: 0.3345


$$$$

     RDKit          2D

 40 41  0  0  0  0  0  0  0  0999 V2000
    1.5000    0.0000    0.0000 C   0  0  0  0  0  0  0  0  0 14  0  0
    3.0000    0.0000    0.0000 O   0  0  0  0  0  0  0  0  0  2  0  0
    3.0000    5.1962    0.0000 O   0  0  0  0  0  0  0  0  0 19  0  0
    2.2500    3.8971    0.0000 C   0  0  0  0  0  0  0  0  0  8  0  0
    0.7500   -1.2990    0.0000 C   0  0  0  0  0  0  0  0  0  6  0  0
    0.7500    1.2990    0.0000 C   0  0  0  0  0  0  0  0  0 16  0  0
   -0.7500   -1.2990    0.0000 C   0  0  0  0  0  0  0  0  0  5  0  0
    1.5000   -2.5981    0.0000 H   0  0  0  0  0  0  0  0  0  0  0  0
    1.5000    2.5981    0.0000 C   0  0  0  0  0  0  0  0  0 10  0  0
   -0.7500    1.2990    0.0000 C   0  0  0  0  0  0  0  0  0 15  0  0
   -1.5000    0.0000    0.0000 C   0  0  0  0  0  0  0  0  0  7  0  0
   -1.5000   -2.5981    0.0000 H   0  0  0  0  0  0  0  0  0  0  0  0
    2.7990    1.8481    0.0000 H   0  0  0  0  0  0  0  0  0  0  0  0
    0.4219    3.4106    0.0000 H   0  0  0  0  0  0  0  0  0  0  0  0
   -1.5000    2.5981    0.0000 C   0  0  0  0  0  0  0  0  0 18  0  0
   -2.7059   -0.1481    0.0000 H   0  0  0  0  0  0  0  0  0  0  0  0
   -2.6491    3.5623    0.0000 C   0  0  0  0  0  0  0  0  0 12  0  0
   -2.9095    2.0850    0.0000 C   0  0  0  0  0  0  0  0  0 17  0  0
   -0.5793    3.5854    0.0000 H   0  0  0  0  0  0  0  0  0  0  0  0
   -1.8991    4.8613    0.0000 H   0  0  0  0  0  0  0  0  0  0  0  0
   -3.8519    4.1752    0.0000 H   0  0  0  0  0  0  0  0  0  0  0  0
   -4.4095    2.0850    0.0000 C   0  0  0  0  0  0  0  0  0 11  0  0
   -2.8460    0.8717    0.0000 H   0  0  0  0  0  0  0  0  0  0  0  0
   -5.9095    2.0850    0.0000 N   0  0  0  0  0  0  0  0  0  3  0  0
   -4.4095    0.5850    0.0000 H   0  0  0  0  0  0  0  0  0  0  0  0
   -4.5741    3.4250    0.0000 H   0  0  0  0  0  0  0  0  0  0  0  0
   -6.6595    3.3841    0.0000 C   0  0  0  0  0  0  0  0  0 13  0  0
   -6.6595    0.7860    0.0000 H   0  0  0  0  0  0  0  0  0  0  0  0
   -5.9095    4.6831    0.0000 O   0  0  0  0  0  0  0  0  0  1  0  0
   -8.1595    3.3841    0.0000 C   0  0  0  0  0  0  0  0  0  9  0  0
   -9.6595    3.3841    0.0000 C   0  0  0  0  0  0  0  0  0  4  0  0
   -8.1595    4.8841    0.0000 H   0  0  0  0  0  0  0  0  0  0  0  0
   -8.1595    1.8841    0.0000 H   0  0  0  0  0  0  0  0  0  0  0  0
  -11.1595    3.3841    0.0000 H   0  0  0  0  0  0  0  0  0  0  0  0
   -9.6595    1.8841    0.0000 H   0  0  0  0  0  0  0  0  0  0  0  0
   -9.6595    4.8841    0.0000 H   0  0  0  0  0  0  0  0  0  0  0  0
    0.9510    4.6471    0.0000 H   0  0  0  0  0  0  0  0  0  0  0  0
    3.5490    3.1471    0.0000 H   0  0  0  0  0  0  0  0  0  0  0  0
    3.7500   -1.2990    0.0000 H   0  0  0  0  0  0  0  0  0  0  0  0
    4.5000    5.1962    0.0000 H   0  0  0  0  0  0  0  0  0  0  0  0
  1  2  1  0
  3  4  1  0
  5  1  2  0
  1  6  1  0
  7  5  1  0
  5  8  1  0
  6  9  1  0
  6 10  2  0
 11  7  2  0
  7 12  1  0
  9  4  1  0
  9 13  1  0
  9 14  1  0
 15 10  1  0
 10 11  1  0
 11 16  1  0
 17 15  1  0
 15 18  1  0
 15 19  1  6
 18 17  1  0
 17 20  1  0
 17 21  1  0
 22 18  1  0
 18 23  1  1
 24 22  1  0
 22 25  1  0
 22 26  1  0
 27 24  1  0
 24 28  1  0
 29 27  2  0
 27 30  1  0
 30 31  1  0
 30 32  1  0
 30 33  1  0
 31 34  1  0
 31 35  1  0
 31 36  1  0
  4 37  1  0
  4 38  1  0
  2 39  1  0
  3 40  1  0
M  END
>  <SMILES>  (4) 
CCC(=O)NCC1CC1c1cccc(O)c1CCO

>  <Molecular Weight>  (4) 
263.3

>  <Substrate_ID>  (4) 
MOL0004

>  <Substrate>  (4) 


>  <Substrate_SMILES>  (4) 
CCC(=O)NCC1CC1c1cccc2c1CCO2

>  <Reaction>  (4) 
O-dealkylation_(aromatic)

>  <Score>  (4) 
0.268

>  <Reaction_Score>  (4) 
0.2581

>  <Bond_Score>  (4) 
0.2782

>  <Rank>  (4) 
4

>  <Subtype>  (4) 
3A4

>  <Subtype_Scores>  (4) 
[3A4] SOM_score: 0.2782, Reaction_score: 0.2581, Score: 0.2680


$$$$
