
     RDKit          2D

 22 24  0  0  0  0  0  0  0  0999 V2000
   -0.4330   -0.7500    0.0000 C   0  0  0  0  0  0  0  0  0  3  0  0
   -0.4330    0.7500    0.0000 C   0  0  0  0  0  0  0  0  0  2  0  0
    0.8660    0.0000    0.0000 O   0  0  0  0  0  0  0  0  0 10  0  0
   -1.7321   -1.5000    0.0000 C   0  0  0  0  0  0  0  0  0  5  0  0
   -1.4751    0.3290    0.0000 H   0  0  0  0  0  0  0  0  0  0  0  0
   -3.0311   -0.7500    0.0000 C   0  0  0  0  0  0  0  0  0  8  0  0
   -2.6962   -2.6491    0.0000 H   0  0  0  0  0  0  0  0  0  0  0  0
   -0.7679   -2.6491    0.0000 H   0  0  0  0  0  0  0  0  0  0  0  0
   -4.5083   -0.4895    0.0000 C   0  0  0  0  0  0  0  0  0  9  0  0
   -3.0311    0.7500    0.0000 C   0  0  0  0  0  0  0  0  0  6  0  0
   -3.5441   -2.1595    0.0000 H   0  0  0  0  0  0  0  0  0  0  0  0
   -5.9855   -0.7500    0.0000 C   0  0  0  0  0  0  0  0  0  7  0  0
   -5.0213   -1.8991    0.0000 O   0  0  0  0  0  0  0  0  0  1  0  0
   -4.6055    0.3017    0.0000 H   0  0  0  0  0  0  0  0  0  0  0  0
   -1.7321    1.5000    0.0000 C   0  0  0  0  0  0  0  0  0  4  0  0
   -3.5441    2.1595    0.0000 H   0  0  0  0  0  0  0  0  0  0  0  0
   -3.8272    0.7083    0.0000 H   0  0  0  0  0  0  0  0  0  0  0  0
   -6.4985    0.6595    0.0000 H   0  0  0  0  0  0  0  0  0  0  0  0
   -7.2846   -1.5000    0.0000 H   0  0  0  0  0  0  0  0  0  0  0  0
   -0.7679    2.6491    0.0000 H   0  0  0  0  0  0  0  0  0  0  0  0
   -2.6962    2.6491    0.0000 H   0  0  0  0  0  0  0  0  0  0  0  0
    0.3170    2.0490    0.0000 H   0  0  0  0  0  0  0  0  0  0  0  0
  1  2  1  0
  2  3  1  0
  3  1  1  0
  4  1  1  0
  1  5  1  0
  6  4  1  0
  4  7  1  0
  4  8  1  0
  9  6  1  0
 10  6  1  0
  6 11  1  6
 12  9  1  0
  9 13  1  0
  9 14  1  6
 15 10  1  0
 10 16  1  0
 10 17  1  0
 13 12  1  0
 12 18  1  0
 12 19  1  0
  2 15  1  0
 15 20  1  0
 15 21  1  0
  2 22  1  0
M  END
>  <SMILES>  (1) 
C1CC2OC2CC1C1CO1

>  <Molecular Weight>  (1) 
140.2

>  <Substrate_ID>  (1) 
MOL0077

>  <Substrate>  (1) 


>  <Substrate_SMILES>  (1) 
C1=CCC(C2CO2)CC1

>  <Reaction>  (1) 
epoxidation

>  <Score>  (1) 
0.1776

>  <Reaction_Score>  (1) 
0.0824

>  <Bond_Score>  (1) 
0.3827

>  <Rank>  (1) 
1

>  <Subtype>  (1) 
1A2, 2A6, 2B6, 2E1

>  <Subtype_Scores>  (1) 
[1A2] SOM_score: 0.3063, Reaction_score: 0.0824, Score: 0.1588
[2A6] SOM_score: 0.2784, Reaction_score: 0.0824, Score: 0.1514
[2B6] SOM_score: 0.2974, Reaction_score: 0.0824, Score: 0.1565
[2E1] SOM_score: 0.3827, Reaction_score: 0.0824, Score: 0.1776


$$$$
