Portulacaxanthin?II
     RDKit          2D

 27 28  0  0  0  0  0  0  0  0999 V2000
   -0.1364    5.1072    0.0000 C   0  0  0  0  0  0  0  0  0  0  0  0
   -0.8928    3.8119    0.0000 C   0  0  0  0  0  0  0  0  0  0  0  0
   -2.3928    3.8192    0.0000 C   0  0  0  0  0  0  0  0  0  0  0  0
   -3.1364    5.1229    0.0000 C   0  0  0  0  0  0  0  0  0  0  0  0
   -4.6364    5.1303    0.0000 C   0  0  0  0  0  0  0  0  0  0  0  0
   -5.3928    3.8340    0.0000 N   0  0  0  0  0  0  0  0  0  0  0  0
   -4.6492    2.5303    0.0000 C   0  0  0  0  0  0  0  0  0  0  0  0
   -3.1492    2.5229    0.0000 C   0  0  0  0  0  0  0  0  0  0  0  0
   -5.4058    1.2351    0.0000 C   0  0  0  0  0  0  0  0  0  0  0  0
   -4.6624   -0.0677    0.0000 O   0  0  0  0  0  0  0  0  0  0  0  0
   -6.9058    1.2427    0.0000 O   0  0  0  0  0  0  0  0  0  0  0  0
   -4.2832    7.0785    0.0000 C   0  0  0  0  0  0  0  0  0  0  0  0
   -5.4276    8.0482    0.0000 O   0  0  0  0  0  0  0  0  0  0  0  0
   -2.8712    7.5848    0.0000 O   0  0  0  0  0  0  0  0  0  0  0  0
    1.8435    5.0974    0.0000 N   0  0  0  0  0  0  0  0  0  0  0  0
    2.5999    6.3928    0.0000 C   0  0  0  0  0  0  0  0  0  0  0  0
    4.0999    6.3854    0.0000 C   0  0  0  0  0  0  0  0  0  0  0  0
    4.8435    5.0827    0.0000 C   0  0  0  0  0  0  0  0  0  0  0  0
    6.3435    5.0827    0.0000 C   0  0  0  0  0  0  0  0  0  0  0  0
    7.0935    3.8127    0.0000 C   0  0  0  0  0  0  0  0  0  0  0  0
    6.3435    2.4627    0.0000 C   0  0  0  0  0  0  0  0  0  0  0  0
    4.8435    2.4627    0.0000 C   0  0  0  0  0  0  0  0  0  0  0  0
    4.0935    3.8127    0.0000 C   0  0  0  0  0  0  0  0  0  0  0  0
    7.1042    1.1699    0.0000 O   0  0  0  0  0  0  0  0  0  0  0  0
    1.1929    6.9127    0.0000 C   0  0  0  0  0  0  0  0  0  0  0  0
    0.9397    8.3912    0.0000 O   0  0  0  0  0  0  0  0  0  0  0  0
    0.0391    5.9542    0.0000 O   0  0  0  0  0  0  0  0  0  0  0  0
  1  2  1  0
  2  3  2  0
  3  4  1  0
  4  5  1  0
  5  6  1  0
  6  7  1  0
  7  8  2  0
  3  8  1  0
  7  9  1  0
  9 10  2  0
  9 11  1  0
  5 12  1  0
 12 13  1  0
 12 14  2  0
  1 15  2  0
 15 16  1  0
 16 17  1  0
 17 18  1  0
 18 19  2  0
 19 20  1  0
 20 21  2  0
 21 22  1  0
 22 23  2  0
 18 23  1  0
 21 24  1  0
 16 25  1  0
 25 26  1  0
 25 27  2  0
M  END
>  <cdk:Title>  (1) 
Portulacaxanthin?II

>  <1A2>  (1) 
N

>  <2A6>  (1) 
N

>  <2B6>  (1) 
N

>  <2C8>  (1) 
N

>  <2C9>  (1) 
N

>  <2C19>  (1) 
N

>  <2D6>  (1) 
N

>  <2E1>  (1) 
N

>  <3A4>  (1) 
N

>  <Citation>  (1) 
Nucleic Acids Res. 2018. Jan 4;46(D1):D608-17. PMID:29140435
Nucleic Acids Res. 2018 Jan 4;46(D1):D1074-D1082. PMID:29126136
Nucleic Acids Res., 45:D380-388 (2017).  PMID:27924025
Nucleic Acids Res. 2016 Jan 4;44(D1):D1202-13. PMID:26400175

>  <ROMol>  (1) 
<rdkit.Chem.rdchem.Mol object at 0x7c29060d5690>

>  <Drug_like>  (1) 
True

$$$$
a-Carboxy-g-dodecalactone
     RDKit          2D

 17 17  0  0  0  0  0  0  0  0999 V2000
   11.8497   -1.9986    0.0000 C   0  0  0  0  0  0  0  0  0  0  0  0
   10.5534   -2.7533    0.0000 C   0  0  0  0  0  0  0  0  0  0  0  0
    9.2516   -2.0080    0.0000 C   0  0  0  0  0  0  0  0  0  0  0  0
    7.1257   -3.2457    0.0000 C   0  0  0  0  0  0  0  0  0  0  0  0
    5.4074   -2.2619    0.0000 C   0  0  0  0  0  0  0  0  0  0  0  0
    3.6962   -3.2581    0.0000 C   0  0  0  0  0  0  0  0  0  0  0  0
    1.9779   -2.2743    0.0000 C   0  0  0  0  0  0  0  0  0  0  0  0
    0.6816   -3.0290    0.0000 C   0  0  0  0  0  0  0  0  0  0  0  0
   -0.6201   -2.2837    0.0000 C   0  0  0  0  0  0  0  0  0  0  0  0
   -1.7285   -1.2839    0.0000 C   0  0  0  0  0  0  0  0  0  0  0  0
   -3.0275   -2.0339    0.0000 C   0  0  0  0  0  0  0  0  0  0  0  0
   -3.8334   -0.2253    0.0000 C   0  0  0  0  0  0  0  0  0  0  0  0
   -2.9521    0.9885    0.0000 O   0  0  0  0  0  0  0  0  0  0  0  0
   -5.3252   -0.0690    0.0000 O   0  0  0  0  0  0  0  0  0  0  0  0
   -2.7159   -3.4937    0.0000 C   0  0  0  0  0  0  0  0  0  0  0  0
   -3.7224   -4.6059    0.0000 O   0  0  0  0  0  0  0  0  0  0  0  0
   -1.2230   -3.6594    0.0000 O   0  0  0  0  0  0  0  0  0  0  0  0
  1  2  1  0
  2  3  1  0
  3  4  1  0
  4  5  1  0
  5  6  1  0
  6  7  1  0
  7  8  1  0
  8  9  1  0
  9 10  1  0
 10 11  1  0
 11 12  1  0
 12 13  2  0
 12 14  1  0
 11 15  1  0
 15 16  2  0
 15 17  1  0
  9 17  1  0
M  END
>  <cdk:Title>  (2) 
a-Carboxy-g-dodecalactone

>  <1A2>  (2) 
N

>  <2A6>  (2) 
N

>  <2B6>  (2) 
N

>  <2C8>  (2) 
N

>  <2C9>  (2) 
N

>  <2C19>  (2) 
N

>  <2D6>  (2) 
N

>  <2E1>  (2) 
N

>  <3A4>  (2) 
N

>  <Citation>  (2) 
Nucleic Acids Res. 2018. Jan 4;46(D1):D608-17. PMID:29140435
Nucleic Acids Res. 2018 Jan 4;46(D1):D1074-D1082. PMID:29126136
Nucleic Acids Res., 45:D380-388 (2017).  PMID:27924025
Nucleic Acids Res. 2016 Jan 4;44(D1):D1202-13. PMID:26400175

>  <ROMol>  (2) 
<rdkit.Chem.rdchem.Mol object at 0x7c29060d5770>

>  <Drug_like>  (2) 
True

$$$$
LMST02030190
     RDKit          2D

 27 30  0  0  0  0  0  0  0  0999 V2000
    8.2246   -1.1667    0.0000 O   0  0  0  0  0  0  0  0  0  0  0  0
    8.2301   -2.6667    0.0000 C   0  0  0  0  0  0  0  0  0  0  0  0
    6.9337   -3.4214    0.0000 C   0  0  0  0  0  0  0  0  0  0  0  0
    5.2154   -2.4376    0.0000 C   0  0  0  0  0  0  0  0  0  0  0  0
    3.5043   -3.4338    0.0000 C   0  0  0  0  0  0  0  0  0  0  0  0
    2.0843   -3.8938    0.0000 C   0  0  0  0  0  0  0  0  0  0  0  0
    2.0843   -5.3938    0.0000 C   0  0  0  0  0  0  0  0  0  0  0  0
    0.7843   -6.1438    0.0000 C   0  0  0  0  0  0  0  0  0  0  0  0
   -0.5157   -5.3938    0.0000 C   0  0  0  0  0  0  0  0  0  0  0  0
   -0.5157   -3.8938    0.0000 C   0  0  0  0  0  0  0  0  0  0  0  0
    0.7843   -3.1438    0.0000 C   0  0  0  0  0  0  0  0  0  0  0  0
   -1.0256   -0.9984    0.0000 O   0  0  0  0  0  0  0  0  0  0  0  0
   -1.8157   -6.1438    0.0000 C   0  0  0  0  0  0  0  0  0  0  0  0
   -1.8157   -7.6438    0.0000 C   0  0  0  0  0  0  0  0  0  0  0  0
   -0.5157   -8.3938    0.0000 C   0  0  0  0  0  0  0  0  0  0  0  0
    0.7843   -7.6438    0.0000 C   0  0  0  0  0  0  0  0  0  0  0  0
   -3.1157   -8.3938    0.0000 C   0  0  0  0  0  0  0  0  0  0  0  0
   -4.4157   -7.6438    0.0000 C   0  0  0  0  0  0  0  0  0  0  0  0
   -5.7146   -8.3940    0.0000 O   0  0  0  0  0  0  0  0  0  0  0  0
   -4.4157   -6.1438    0.0000 C   0  0  0  0  0  0  0  0  0  0  0  0
   -3.1157   -5.3938    0.0000 C   0  0  0  0  0  0  0  0  0  0  0  0
   -2.3262   -3.2485    0.0000 C   0  0  0  0  0  0  0  0  0  0  0  0
    3.5043   -5.8638    0.0000 C   0  0  0  0  0  0  0  0  0  0  0  0
    4.3943   -4.6438    0.0000 C   0  0  0  0  0  0  0  0  0  0  0  0
    2.3924   -0.9700    0.0000 C   0  0  0  0  0  0  0  0  0  0  0  0
    5.2100   -0.9376    0.0000 O   0  0  0  0  0  0  0  0  0  0  0  0
    9.5318   -3.4120    0.0000 O   0  0  0  0  0  0  0  0  0  0  0  0
  1  2  2  0
  2  3  1  0
  3  4  1  0
  4  5  1  0
  5  6  1  0
  6  7  1  0
  7  8  1  0
  8  9  1  0
  9 10  1  0
 10 11  1  0
  6 11  1  0
 10 12  1  0
  9 13  1  0
 13 14  1  0
 14 15  1  0
 15 16  1  0
  8 16  1  0
 14 17  2  0
 17 18  1  0
 18 19  2  0
 18 20  1  0
 20 21  1  0
 13 21  1  0
 13 22  1  1
  7 23  1  0
 23 24  1  0
  5 24  1  0
  6 25  1  1
  4 26  2  0
  2 27  1  0
M  END
>  <cdk:Title>  (3) 
LMST02030190

>  <1A2>  (3) 
N

>  <2A6>  (3) 
N

>  <2B6>  (3) 
N

>  <2C8>  (3) 
N

>  <2C9>  (3) 
N

>  <2C19>  (3) 
N

>  <2D6>  (3) 
N

>  <2E1>  (3) 
N

>  <3A4>  (3) 
N

>  <Citation>  (3) 
Nucleic Acids Res. 2018. Jan 4;46(D1):D608-17. PMID:29140435
Nucleic Acids Res. 2018 Jan 4;46(D1):D1074-D1082. PMID:29126136
Nucleic Acids Res., 45:D380-388 (2017).  PMID:27924025
Nucleic Acids Res. 2016 Jan 4;44(D1):D1202-13. PMID:26400175

>  <ROMol>  (3) 
<rdkit.Chem.rdchem.Mol object at 0x7c29060d57e0>

>  <Drug_like>  (3) 
True

$$$$
(1R_2R_4S_5R_8R_9S_10S_11R)-4-Hydroxy-11-methyl-6-methylidene-12-oxo-13-oxapenta
     RDKit          2D

 25 29  0  0  0  0  0  0  0  0999 V2000
    5.0374    1.9490    0.0000 C   0  0  0  0  0  0  0  0  0  0  0  0
    4.0871    3.1096    0.0000 C   0  0  0  0  0  0  0  0  0  0  0  0
    2.0871    3.1096    0.0000 C   0  0  0  0  0  0  0  0  0  0  0  0
    1.7871    4.5996    0.0000 C   0  0  0  0  0  0  0  0  0  0  0  0
    3.0871    3.8496    0.0000 C   0  0  0  0  0  0  0  0  0  0  0  0
    4.3871    4.5996    0.0000 C   0  0  0  0  0  0  0  0  0  0  0  0
    4.3871    6.0896    0.0000 C   0  0  0  0  0  0  0  0  0  0  0  0
    3.0871    6.8396    0.0000 C   0  0  0  0  0  0  0  0  0  0  0  0
    1.7871    6.0896    0.0000 C   0  0  0  0  0  0  0  0  0  0  0  0
   -0.7929    6.0896    0.0000 C   0  0  0  0  0  0  0  0  0  0  0  0
   -2.0729    6.8396    0.0000 C   0  0  0  0  0  0  0  0  0  0  0  0
   -3.3729    6.0896    0.0000 C   0  0  0  0  0  0  0  0  0  0  0  0
   -3.3729    4.5996    0.0000 C   0  0  0  0  0  0  0  0  0  0  0  0
   -2.0729    3.8496    0.0000 C   0  0  0  0  0  0  0  0  0  0  0  0
   -3.9551    1.5911    0.0000 C   0  0  0  0  0  0  0  0  0  0  0  0
   -0.7929    4.5996    0.0000 C   0  0  0  0  0  0  0  0  0  0  0  0
    0.5071    3.8496    0.0000 C   0  0  0  0  0  0  0  0  0  0  0  0
   -0.9569    1.3000    0.0000 C   0  0  0  0  0  0  0  0  0  0  0  0
   -2.4569    1.2965    0.0000 O   0  0  0  0  0  0  0  0  0  0  0  0
    0.5191   -1.2426    0.0000 O   0  0  0  0  0  0  0  0  0  0  0  0
   -2.7529    5.3596    0.0000 C   0  0  0  0  0  0  0  0  0  0  0  0
   -4.2194    5.0446    0.0000 O   0  0  0  0  0  0  0  0  0  0  0  0
   -2.7529    7.7696    0.0000 O   0  0  0  0  0  0  0  0  0  0  0  0
   -0.8029    7.8696    0.0000 C   0  0  0  0  0  0  0  0  0  0  0  0
    5.8644    5.8293    0.0000 O   0  0  0  0  0  0  0  0  0  0  0  0
  1  2  2  0
  2  3  1  0
  4  3  1  1
  4  5  1  0
  5  6  1  0
  2  6  1  0
  6  7  1  0
  7  8  1  0
  8  9  1  0
  4  9  1  0
  9 10  1  0
 10 11  1  1
 11 12  1  0
 12 13  1  0
 13 14  1  0
 14 15  1  6
 14 16  1  0
 10 16  1  0
 16 17  1  0
  4 17  1  0
 17 18  1  0
 18 19  2  0
 18 20  1  0
 14 21  1  0
 21 22  2  0
 21 23  1  0
 23 24  1  0
 10 24  1  0
  7 25  1  0
M  END
>  <cdk:Title>  (4) 
(1R_2R_4S_5R_8R_9S_10S_11R)-4-Hydroxy-11-methyl-6-methylidene-12-oxo-13-oxapentacyclo[9.3.3.1???_???.0??_?????.0??_???]octadecane-9-carboxylic acid

>  <1A2>  (4) 
N

>  <2A6>  (4) 
N

>  <2B6>  (4) 
N

>  <2C8>  (4) 
N

>  <2C9>  (4) 
N

>  <2C19>  (4) 
N

>  <2D6>  (4) 
N

>  <2E1>  (4) 
N

>  <3A4>  (4) 
N

>  <Citation>  (4) 
Nucleic Acids Res. 2018. Jan 4;46(D1):D608-17. PMID:29140435
Nucleic Acids Res. 2018 Jan 4;46(D1):D1074-D1082. PMID:29126136
Nucleic Acids Res., 45:D380-388 (2017).  PMID:27924025
Nucleic Acids Res. 2016 Jan 4;44(D1):D1202-13. PMID:26400175

>  <ROMol>  (4) 
<rdkit.Chem.rdchem.Mol object at 0x7c29060d5850>

>  <Drug_like>  (4) 
True

$$$$
Asn-leu
     RDKit          2D

 17 16  0  0  0  0  0  0  0  0999 V2000
    0.8380   -0.6895    0.0000 C   0  0  0  0  0  0  0  0  0  0  0  0
    1.6793    1.6221    0.0000 C   0  0  0  0  0  0  0  0  0  0  0  0
    1.6793    3.1221    0.0000 C   0  0  0  0  0  0  0  0  0  0  0  0
    4.2255    0.1521    0.0000 C   0  0  0  0  0  0  0  0  0  0  0  0
    5.5245    0.9021    0.0000 C   0  0  0  0  0  0  0  0  0  0  0  0
    6.8235    0.1521    0.0000 N   0  0  0  0  0  0  0  0  0  0  0  0
    6.8235   -1.3479    0.0000 C   0  0  0  0  0  0  0  0  0  0  0  0
    5.5245   -2.0979    0.0000 O   0  0  0  0  0  0  0  0  0  0  0  0
    8.1226   -2.0979    0.0000 C   0  0  0  0  0  0  0  0  0  0  0  0
    7.1584   -3.2470    0.0000 N   0  0  0  0  0  0  0  0  0  0  0  0
    9.4216   -1.3479    0.0000 C   0  0  0  0  0  0  0  0  0  0  0  0
   10.7206   -2.0979    0.0000 C   0  0  0  0  0  0  0  0  0  0  0  0
   10.7206   -3.5979    0.0000 O   0  0  0  0  0  0  0  0  0  0  0  0
   12.0197   -1.3479    0.0000 N   0  0  0  0  0  0  0  0  0  0  0  0
    6.4887    2.0512    0.0000 C   0  0  0  0  0  0  0  0  0  0  0  0
    5.9756    3.4607    0.0000 O   0  0  0  0  0  0  0  0  0  0  0  0
    7.9659    1.7907    0.0000 O   0  0  0  0  0  0  0  0  0  0  0  0
  1  2  1  0
  2  3  1  0
  2  4  1  0
  4  5  1  0
  5  6  1  0
  6  7  1  0
  7  8  2  0
  7  9  1  0
  9 10  1  0
  9 11  1  0
 11 12  1  0
 12 13  2  0
 12 14  1  0
  5 15  1  0
 15 16  1  0
 15 17  2  0
M  END
>  <cdk:Title>  (5) 
Asn-leu

>  <1A2>  (5) 
N

>  <2A6>  (5) 
N

>  <2B6>  (5) 
N

>  <2C8>  (5) 
N

>  <2C9>  (5) 
N

>  <2C19>  (5) 
N

>  <2D6>  (5) 
N

>  <2E1>  (5) 
N

>  <3A4>  (5) 
N

>  <Citation>  (5) 
Nucleic Acids Res. 2018. Jan 4;46(D1):D608-17. PMID:29140435
Nucleic Acids Res. 2018 Jan 4;46(D1):D1074-D1082. PMID:29126136
Nucleic Acids Res., 45:D380-388 (2017).  PMID:27924025
Nucleic Acids Res. 2016 Jan 4;44(D1):D1202-13. PMID:26400175

>  <ROMol>  (5) 
<rdkit.Chem.rdchem.Mol object at 0x7c29060d5930>

>  <Drug_like>  (5) 
True

$$$$
Ile-ser
     RDKit          2D

 15 14  0  0  0  0  0  0  0  0999 V2000
    7.6301   -0.4511    0.0000 N   0  0  0  0  0  0  0  0  0  0  0  0
    7.6301    1.5289    0.0000 C   0  0  0  0  0  0  0  0  0  0  0  0
    8.9291    2.2789    0.0000 O   0  0  0  0  0  0  0  0  0  0  0  0
    6.3310    2.2789    0.0000 C   0  0  0  0  0  0  0  0  0  0  0  0
    5.8180    0.8694    0.0000 N   0  0  0  0  0  0  0  0  0  0  0  0
    6.3310    3.7789    0.0000 C   0  0  0  0  0  0  0  0  0  0  0  0
    7.0082    5.6395    0.0000 C   0  0  0  0  0  0  0  0  0  0  0  0
    5.0320    4.5289    0.0000 C   0  0  0  0  0  0  0  0  0  0  0  0
    3.7329    3.7789    0.0000 C   0  0  0  0  0  0  0  0  0  0  0  0
    8.9291   -1.2011    0.0000 C   0  0  0  0  0  0  0  0  0  0  0  0
   10.2281   -0.4511    0.0000 C   0  0  0  0  0  0  0  0  0  0  0  0
   11.5272   -1.2011    0.0000 O   0  0  0  0  0  0  0  0  0  0  0  0
    7.9649   -2.3501    0.0000 C   0  0  0  0  0  0  0  0  0  0  0  0
    8.4779   -3.7597    0.0000 O   0  0  0  0  0  0  0  0  0  0  0  0
    6.4877   -2.0896    0.0000 O   0  0  0  0  0  0  0  0  0  0  0  0
  1  2  1  0
  2  3  2  0
  2  4  1  0
  4  5  1  0
  4  6  1  0
  6  7  1  0
  6  8  1  0
  8  9  1  0
  1 10  1  0
 10 11  1  0
 11 12  1  0
 10 13  1  0
 13 14  1  0
 13 15  2  0
M  END
>  <cdk:Title>  (6) 
Ile-ser

>  <1A2>  (6) 
N

>  <2A6>  (6) 
N

>  <2B6>  (6) 
N

>  <2C8>  (6) 
N

>  <2C9>  (6) 
N

>  <2C19>  (6) 
N

>  <2D6>  (6) 
N

>  <2E1>  (6) 
N

>  <3A4>  (6) 
N

>  <Citation>  (6) 
Nucleic Acids Res. 2018. Jan 4;46(D1):D608-17. PMID:29140435
Nucleic Acids Res. 2018 Jan 4;46(D1):D1074-D1082. PMID:29126136
Nucleic Acids Res., 45:D380-388 (2017).  PMID:27924025
Nucleic Acids Res. 2016 Jan 4;44(D1):D1202-13. PMID:26400175

>  <ROMol>  (6) 
<rdkit.Chem.rdchem.Mol object at 0x7c29060d59a0>

>  <Drug_like>  (6) 
True

$$$$
(all-e)-1_8_10-Heptadecatriene-4_6-diyne-3_12-diol
     RDKit          2D

 19 18  0  0  0  0  0  0  0  0999 V2000
    6.6381    7.6211    0.0000 C   0  0  0  0  0  0  0  0  0  0  0  0
    7.9371    8.3711    0.0000 C   0  0  0  0  0  0  0  0  0  0  0  0
    7.9371    9.8711    0.0000 C   0  0  0  0  0  0  0  0  0  0  0  0
   10.0675   11.1011    0.0000 C   0  0  0  0  0  0  0  0  0  0  0  0
   10.0675   12.6011    0.0000 C   0  0  0  0  0  0  0  0  0  0  0  0
   11.3666   13.3511    0.0000 C   0  0  0  0  0  0  0  0  0  0  0  0
   12.6656   12.6011    0.0000 C   0  0  0  0  0  0  0  0  0  0  0  0
   13.9647   13.3511    0.0000 C   0  0  0  0  0  0  0  0  0  0  0  0
   15.2637   12.6011    0.0000 C   0  0  0  0  0  0  0  0  0  0  0  0
   16.5627   13.3511    0.0000 C   0  0  0  0  0  0  0  0  0  0  0  0
   17.8618   12.6011    0.0000 C   0  0  0  0  0  0  0  0  0  0  0  0
   19.1608   11.8511    0.0000 C   0  0  0  0  0  0  0  0  0  0  0  0
   20.4599   11.1011    0.0000 C   0  0  0  0  0  0  0  0  0  0  0  0
   21.7589   10.3511    0.0000 C   0  0  0  0  0  0  0  0  0  0  0  0
   23.0579    9.6011    0.0000 C   0  0  0  0  0  0  0  0  0  0  0  0
   24.3570   10.3511    0.0000 C   0  0  0  0  0  0  0  0  0  0  0  0
   24.3570   11.8511    0.0000 C   0  0  0  0  0  0  0  0  0  0  0  0
   24.0221    8.4520    0.0000 O   0  0  0  0  0  0  0  0  0  0  0  0
   10.4024   14.5002    0.0000 O   0  0  0  0  0  0  0  0  0  0  0  0
  1  2  1  0
  2  3  1  0
  3  4  1  0
  4  5  1  0
  5  6  1  0
  6  7  1  0
  7  8  2  0
  8  9  1  0
  9 10  2  0
 10 11  1  0
 11 12  3  0
 12 13  1  0
 13 14  3  0
 14 15  1  0
 15 16  1  0
 16 17  2  0
 15 18  1  0
  6 19  1  0
M  END
>  <cdk:Title>  (7) 
(all-e)-1_8_10-Heptadecatriene-4_6-diyne-3_12-diol

>  <1A2>  (7) 
N

>  <2A6>  (7) 
N

>  <2B6>  (7) 
N

>  <2C8>  (7) 
N

>  <2C9>  (7) 
N

>  <2C19>  (7) 
N

>  <2D6>  (7) 
N

>  <2E1>  (7) 
N

>  <3A4>  (7) 
N

>  <Citation>  (7) 
Nucleic Acids Res. 2018. Jan 4;46(D1):D608-17. PMID:29140435
Nucleic Acids Res. 2018 Jan 4;46(D1):D1074-D1082. PMID:29126136
Nucleic Acids Res., 45:D380-388 (2017).  PMID:27924025
Nucleic Acids Res. 2016 Jan 4;44(D1):D1202-13. PMID:26400175

>  <ROMol>  (7) 
<rdkit.Chem.rdchem.Mol object at 0x7c29060d5a10>

>  <Drug_like>  (7) 
True

$$$$
(20S)-Protopanaxadiol
     RDKit          2D

 33 36  0  0  0  0  0  0  0  0999 V2000
    5.6667    5.6225    0.0000 C   0  0  0  0  0  0  0  0  0  0  0  0
    4.3681    6.3734    0.0000 C   0  0  0  0  0  0  0  0  0  0  0  0
    1.8211    4.9051    0.0000 C   0  0  0  0  0  0  0  0  0  0  0  0
   -0.3086    6.1365    0.0000 C   0  0  0  0  0  0  0  0  0  0  0  0
   -1.2720    7.2862    0.0000 C   0  0  0  0  0  0  0  0  0  0  0  0
   -2.8556    4.6681    0.0000 C   0  0  0  0  0  0  0  0  0  0  0  0
   -1.9756    3.4581    0.0000 C   0  0  0  0  0  0  0  0  0  0  0  0
   -2.8556    2.2481    0.0000 C   0  0  0  0  0  0  0  0  0  0  0  0
   -4.2856    2.7081    0.0000 C   0  0  0  0  0  0  0  0  0  0  0  0
   -4.4540    0.2539    0.0000 C   0  0  0  0  0  0  0  0  0  0  0  0
   -4.2856    4.2081    0.0000 C   0  0  0  0  0  0  0  0  0  0  0  0
   -5.5856    4.9581    0.0000 C   0  0  0  0  0  0  0  0  0  0  0  0
   -6.8856    4.2081    0.0000 C   0  0  0  0  0  0  0  0  0  0  0  0
   -6.8856    2.7081    0.0000 C   0  0  0  0  0  0  0  0  0  0  0  0
   -5.5856    1.9581    0.0000 C   0  0  0  0  0  0  0  0  0  0  0  0
   -3.3338    0.0680    0.0000 C   0  0  0  0  0  0  0  0  0  0  0  0
   -5.5856    0.4581    0.0000 C   0  0  0  0  0  0  0  0  0  0  0  0
   -6.8856   -0.2919    0.0000 C   0  0  0  0  0  0  0  0  0  0  0  0
   -8.1856    0.4581    0.0000 C   0  0  0  0  0  0  0  0  0  0  0  0
   -8.1856    1.9581    0.0000 C   0  0  0  0  0  0  0  0  0  0  0  0
   -8.1856    4.8981    0.0000 C   0  0  0  0  0  0  0  0  0  0  0  0
   -9.4856    2.7081    0.0000 C   0  0  0  0  0  0  0  0  0  0  0  0
  -10.7856    1.9581    0.0000 C   0  0  0  0  0  0  0  0  0  0  0  0
  -10.7856    0.4581    0.0000 C   0  0  0  0  0  0  0  0  0  0  0  0
  -12.2629    0.7185    0.0000 O   0  0  0  0  0  0  0  0  0  0  0  0
   -9.4856   -0.2919    0.0000 C   0  0  0  0  0  0  0  0  0  0  0  0
  -11.0667   -2.1765    0.0000 C   0  0  0  0  0  0  0  0  0  0  0  0
   -7.5961   -2.5442    0.0000 C   0  0  0  0  0  0  0  0  0  0  0  0
   -4.6216    6.1073    0.0000 O   0  0  0  0  0  0  0  0  0  0  0  0
    0.6564    7.2849    0.0000 O   0  0  0  0  0  0  0  0  0  0  0  0
    6.9662    6.3717    0.0000 C   0  0  0  0  0  0  0  0  0  0  0  0
    8.2648    5.6208    0.0000 C   0  0  0  0  0  0  0  0  0  0  0  0
    6.9672    7.8717    0.0000 C   0  0  0  0  0  0  0  0  0  0  0  0
  1  2  1  0
  2  3  1  0
  3  4  1  0
  4  5  1  1
  4  6  1  0
  6  7  1  0
  7  8  1  0
  8  9  1  0
  9 10  1  1
  9 11  1  0
  6 11  1  0
 11 12  1  0
 12 13  1  0
 13 14  1  0
 14 15  1  0
  9 15  1  0
 15 16  1  6
 15 17  1  0
 17 18  1  0
 18 19  1  0
 19 20  1  0
 14 20  1  0
 20 21  1  6
 20 22  1  0
 22 23  1  0
 23 24  1  0
 24 25  1  0
 24 26  1  0
 19 26  1  0
 26 27  1  0
 26 28  1  0
 12 29  1  0
  4 30  1  0
  1 31  2  0
 31 32  1  0
 31 33  1  0
M  END
>  <cdk:Title>  (8) 
(20S)-Protopanaxadiol

>  <1A2>  (8) 
N

>  <2A6>  (8) 
N

>  <2B6>  (8) 
N

>  <2C8>  (8) 
N

>  <2C9>  (8) 
N

>  <2C19>  (8) 
N

>  <2D6>  (8) 
N

>  <2E1>  (8) 
N

>  <3A4>  (8) 
N

>  <Citation>  (8) 
Nucleic Acids Res. 2018. Jan 4;46(D1):D608-17. PMID:29140435
Nucleic Acids Res. 2018 Jan 4;46(D1):D1074-D1082. PMID:29126136
Nucleic Acids Res., 45:D380-388 (2017).  PMID:27924025
Nucleic Acids Res. 2016 Jan 4;44(D1):D1202-13. PMID:26400175

>  <ROMol>  (8) 
<rdkit.Chem.rdchem.Mol object at 0x7c29060d5bd0>

>  <Drug_like>  (8) 
True

$$$$
SCHEMBL2833041
     RDKit          2D

 33 34  0  0  0  0  0  0  0  0999 V2000
   -8.5627   -8.0311    0.0000 C   0  0  0  0  0  0  0  0  0  0  0  0
   -9.3131   -6.7324    0.0000 C   0  0  0  0  0  0  0  0  0  0  0  0
  -10.8131   -6.7328    0.0000 C   0  0  0  0  0  0  0  0  0  0  0  0
  -11.5627   -8.0321    0.0000 C   0  0  0  0  0  0  0  0  0  0  0  0
  -13.0627   -8.0326    0.0000 C   0  0  0  0  0  0  0  0  0  0  0  0
  -13.8123   -9.3319    0.0000 C   0  0  0  0  0  0  0  0  0  0  0  0
  -15.3123   -9.3323    0.0000 C   0  0  0  0  0  0  0  0  0  0  0  0
  -16.0627   -8.0336    0.0000 C   0  0  0  0  0  0  0  0  0  0  0  0
  -16.0619  -10.6316    0.0000 C   0  0  0  0  0  0  0  0  0  0  0  0
  -17.5619  -10.6321    0.0000 C   0  0  0  0  0  0  0  0  0  0  0  0
  -18.3115  -11.9314    0.0000 C   0  0  0  0  0  0  0  0  0  0  0  0
  -19.8115  -11.9319    0.0000 C   0  0  0  0  0  0  0  0  0  0  0  0
  -20.5619  -10.6331    0.0000 C   0  0  0  0  0  0  0  0  0  0  0  0
  -20.5610  -13.2311    0.0000 C   0  0  0  0  0  0  0  0  0  0  0  0
  -22.0610  -13.2316    0.0000 O   0  0  0  0  0  0  0  0  0  0  0  0
   -8.5635   -5.4331    0.0000 C   0  0  0  0  0  0  0  0  0  0  0  0
   -7.0635   -5.4326    0.0000 C   0  0  0  0  0  0  0  0  0  0  0  0
   -6.3140   -4.1333    0.0000 C   0  0  0  0  0  0  0  0  0  0  0  0
   -4.8140   -4.1328    0.0000 C   0  0  0  0  0  0  0  0  0  0  0  0
   -4.0644   -2.8336    0.0000 C   0  0  0  0  0  0  0  0  0  0  0  0
   -4.0635   -5.4316    0.0000 C   0  0  0  0  0  0  0  0  0  0  0  0
   -2.5635   -5.4312    0.0000 C   0  0  0  0  0  0  0  0  0  0  0  0
   -1.0927   -7.9768    0.0000 C   0  0  0  0  0  0  0  0  0  0  0  0
    0.2068   -7.2260    0.0000 C   0  0  0  0  0  0  0  0  0  0  0  0
   -0.5439   -5.9273    0.0000 C   0  0  0  0  0  0  0  0  0  0  0  0
    2.0949   -4.9724    0.0000 C   0  0  0  0  0  0  0  0  0  0  0  0
    1.5073   -7.9751    0.0000 C   0  0  0  0  0  0  0  0  0  0  0  0
    1.5082   -9.4751    0.0000 C   0  0  0  0  0  0  0  0  0  0  0  0
    0.2087  -10.2260    0.0000 C   0  0  0  0  0  0  0  0  0  0  0  0
   -1.0918   -9.4768    0.0000 C   0  0  0  0  0  0  0  0  0  0  0  0
   -1.8405  -10.7766    0.0000 C   0  0  0  0  0  0  0  0  0  0  0  0
   -2.3922   -8.7276    0.0000 O   0  0  0  0  0  0  0  0  0  0  0  0
    2.9853   -9.2139    0.0000 O   0  0  0  0  0  0  0  0  0  0  0  0
  1  2  1  0
  2  3  2  0
  3  4  1  0
  4  5  2  0
  5  6  1  0
  6  7  2  0
  7  8  1  0
  7  9  1  0
  9 10  2  0
 10 11  1  0
 11 12  2  0
 12 13  1  0
 12 14  1  0
 14 15  2  0
  2 16  1  0
 16 17  2  0
 17 18  1  0
 18 19  2  0
 19 20  1  0
 19 21  1  0
 21 22  2  0
 23 22  1  1
 23 24  1  0
 24 25  1  0
 24 26  1  0
 24 27  1  0
 27 28  1  0
 28 29  1  0
 29 30  1  0
 23 30  1  0
 30 31  1  1
 30 32  1  0
 23 32  1  0
 28 33  1  0
M  END
>  <cdk:Title>  (9) 
SCHEMBL2833041

>  <1A2>  (9) 
N

>  <2A6>  (9) 
N

>  <2B6>  (9) 
N

>  <2C8>  (9) 
N

>  <2C9>  (9) 
N

>  <2C19>  (9) 
N

>  <2D6>  (9) 
N

>  <2E1>  (9) 
N

>  <3A4>  (9) 
N

>  <Citation>  (9) 
Nucleic Acids Res. 2018. Jan 4;46(D1):D608-17. PMID:29140435
Nucleic Acids Res. 2018 Jan 4;46(D1):D1074-D1082. PMID:29126136
Nucleic Acids Res., 45:D380-388 (2017).  PMID:27924025
Nucleic Acids Res. 2016 Jan 4;44(D1):D1202-13. PMID:26400175

>  <ROMol>  (9) 
<rdkit.Chem.rdchem.Mol object at 0x7c29060d5c40>

>  <Drug_like>  (9) 
True

$$$$
Cys-ser
     RDKit          2D

 13 12  0  0  0  0  0  0  0  0999 V2000
    6.4952   -0.7500    0.0000 N   0  0  0  0  0  0  0  0  0  0  0  0
    5.1962   -0.0000    0.0000 C   0  0  0  0  0  0  0  0  0  0  0  0
    5.1962    1.5000    0.0000 O   0  0  0  0  0  0  0  0  0  0  0  0
    3.8971   -0.7500    0.0000 C   0  0  0  0  0  0  0  0  0  0  0  0
    2.5981   -0.0000    0.0000 C   0  0  0  0  0  0  0  0  0  0  0  0
    1.2990   -0.7500    0.0000 S   0  0  0  0  0  0  0  0  0  0  0  0
    2.9329   -1.8991    0.0000 N   0  0  0  0  0  0  0  0  0  0  0  0
    7.7942   -0.0000    0.0000 C   0  0  0  0  0  0  0  0  0  0  0  0
    9.0933   -0.7500    0.0000 C   0  0  0  0  0  0  0  0  0  0  0  0
   10.3923   -0.0000    0.0000 O   0  0  0  0  0  0  0  0  0  0  0  0
    8.7584    1.1491    0.0000 C   0  0  0  0  0  0  0  0  0  0  0  0
   10.2356    0.8886    0.0000 O   0  0  0  0  0  0  0  0  0  0  0  0
    8.2454    2.5586    0.0000 O   0  0  0  0  0  0  0  0  0  0  0  0
  1  2  1  0
  2  3  2  0
  2  4  1  0
  4  5  1  0
  5  6  1  0
  4  7  1  0
  1  8  1  0
  8  9  1  0
  9 10  1  0
  8 11  1  0
 11 12  1  0
 11 13  2  0
M  END
>  <cdk:Title>  (10) 
Cys-ser

>  <1A2>  (10) 
N

>  <2A6>  (10) 
N

>  <2B6>  (10) 
N

>  <2C8>  (10) 
N

>  <2C9>  (10) 
N

>  <2C19>  (10) 
N

>  <2D6>  (10) 
N

>  <2E1>  (10) 
N

>  <3A4>  (10) 
N

>  <Citation>  (10) 
Nucleic Acids Res. 2018. Jan 4;46(D1):D608-17. PMID:29140435
Nucleic Acids Res. 2018 Jan 4;46(D1):D1074-D1082. PMID:29126136
Nucleic Acids Res., 45:D380-388 (2017).  PMID:27924025
Nucleic Acids Res. 2016 Jan 4;44(D1):D1202-13. PMID:26400175

>  <ROMol>  (10) 
<rdkit.Chem.rdchem.Mol object at 0x7c29060d5cb0>

>  <Drug_like>  (10) 
True

$$$$
Niazinin
     RDKit          2D

 23 24  0  0  0  0  0  0  0  0999 V2000
   -4.4263    1.5382    0.0000 C   0  0  0  0  0  0  0  0  0  0  0  0
   -5.6987    0.7923    0.0000 C   0  0  0  0  0  0  0  0  0  0  0  0
   -5.6987   -0.7520    0.0000 C   0  0  0  0  0  0  0  0  0  0  0  0
   -4.3874   -1.4805    0.0000 C   0  0  0  0  0  0  0  0  0  0  0  0
   -3.0762   -0.6646    0.0000 C   0  0  0  0  0  0  0  0  0  0  0  0
   -3.1151    0.8098    0.0000 C   0  0  0  0  0  0  0  0  0  0  0  0
   -1.8324    1.5874    0.0000 C   0  0  0  0  0  0  0  0  0  0  0  0
   -0.5176    0.8654    0.0000 N   0  0  0  0  0  0  0  0  0  0  0  0
    0.7651    1.6431    0.0000 C   0  0  0  0  0  0  0  0  0  0  0  0
    2.0799    0.9211    0.0000 O   0  0  0  0  0  0  0  0  0  0  0  0
    3.3626    1.6987    0.0000 C   0  0  0  0  0  0  0  0  0  0  0  0
    0.7330    3.1427    0.0000 S   0  0  0  0  0  0  0  0  0  0  0  0
   -6.9915   -1.5127    0.0000 O   0  0  0  0  0  0  0  0  0  0  0  0
   -8.2967   -0.7735    0.0000 C   0  0  0  0  0  0  0  0  0  0  0  0
   -9.2874    0.3769    0.0000 O   0  0  0  0  0  0  0  0  0  0  0  0
  -10.7640    0.1080    0.0000 C   0  0  0  0  0  0  0  0  0  0  0  0
  -11.2652   -1.2952    0.0000 C   0  0  0  0  0  0  0  0  0  0  0  0
  -10.2967   -2.4482    0.0000 C   0  0  0  0  0  0  0  0  0  0  0  0
   -8.7979   -2.1766    0.0000 C   0  0  0  0  0  0  0  0  0  0  0  0
   -8.7902   -3.6766    0.0000 O   0  0  0  0  0  0  0  0  0  0  0  0
  -11.5943   -3.2008    0.0000 O   0  0  0  0  0  0  0  0  0  0  0  0
  -12.5674   -0.5506    0.0000 O   0  0  0  0  0  0  0  0  0  0  0  0
  -10.7726    1.6079    0.0000 C   0  0  0  0  0  0  0  0  0  0  0  0
  1  2  2  0
  2  3  1  0
  3  4  2  0
  4  5  1  0
  5  6  2  0
  1  6  1  0
  6  7  1  0
  7  8  1  0
  8  9  1  0
  9 10  1  0
 10 11  1  0
  9 12  2  0
  3 13  1  0
 13 14  1  0
 14 15  1  0
 15 16  1  0
 16 17  1  0
 17 18  1  0
 18 19  1  0
 14 19  1  0
 19 20  1  0
 18 21  1  0
 17 22  1  0
 16 23  1  0
M  END
>  <cdk:Title>  (11) 
Niazinin

>  <1A2>  (11) 
N

>  <2A6>  (11) 
N

>  <2B6>  (11) 
N

>  <2C8>  (11) 
N

>  <2C9>  (11) 
N

>  <2C19>  (11) 
N

>  <2D6>  (11) 
N

>  <2E1>  (11) 
N

>  <3A4>  (11) 
N

>  <Citation>  (11) 
Nucleic Acids Res. 2018. Jan 4;46(D1):D608-17. PMID:29140435
Nucleic Acids Res. 2018 Jan 4;46(D1):D1074-D1082. PMID:29126136
Nucleic Acids Res., 45:D380-388 (2017).  PMID:27924025
Nucleic Acids Res. 2016 Jan 4;44(D1):D1202-13. PMID:26400175

>  <ROMol>  (11) 
<rdkit.Chem.rdchem.Mol object at 0x7c29060d5d20>

>  <Drug_like>  (11) 
True

$$$$
Fukinone
     RDKit          2D

 16 17  0  0  0  0  0  0  0  0999 V2000
   -5.0742    0.4789    0.0000 C   0  0  0  0  0  0  0  0  0  0  0  0
   -5.0745   -1.0211    0.0000 C   0  0  0  0  0  0  0  0  0  0  0  0
   -6.3736   -1.7709    0.0000 C   0  0  0  0  0  0  0  0  0  0  0  0
   -3.7755   -1.7713    0.0000 C   0  0  0  0  0  0  0  0  0  0  0  0
   -2.4755   -1.0213    0.0000 C   0  0  0  0  0  0  0  0  0  0  0  0
   -1.1755   -1.7713    0.0000 C   0  0  0  0  0  0  0  0  0  0  0  0
   -0.6650    1.1240    0.0000 C   0  0  0  0  0  0  0  0  0  0  0  0
    0.1245   -1.0213    0.0000 C   0  0  0  0  0  0  0  0  0  0  0  0
    2.0140    1.2310    0.0000 C   0  0  0  0  0  0  0  0  0  0  0  0
    1.4245   -1.7713    0.0000 C   0  0  0  0  0  0  0  0  0  0  0  0
    1.4245   -3.2713    0.0000 C   0  0  0  0  0  0  0  0  0  0  0  0
    0.1245   -4.0213    0.0000 C   0  0  0  0  0  0  0  0  0  0  0  0
   -1.1755   -3.2713    0.0000 C   0  0  0  0  0  0  0  0  0  0  0  0
   -2.4755   -4.0213    0.0000 C   0  0  0  0  0  0  0  0  0  0  0  0
   -3.7755   -3.2713    0.0000 C   0  0  0  0  0  0  0  0  0  0  0  0
   -5.0745   -4.0215    0.0000 O   0  0  0  0  0  0  0  0  0  0  0  0
  1  2  1  0
  2  3  1  0
  2  4  2  3
  4  5  1  0
  5  6  1  0
  6  7  1  6
  6  8  1  0
  8  9  1  0
  8 10  1  0
 10 11  1  0
 11 12  1  0
 12 13  1  0
  6 13  1  0
 13 14  1  0
 14 15  1  0
  4 15  1  0
 15 16  2  0
M  END
>  <cdk:Title>  (12) 
Fukinone

>  <1A2>  (12) 
N

>  <2A6>  (12) 
N

>  <2B6>  (12) 
N

>  <2C8>  (12) 
N

>  <2C9>  (12) 
N

>  <2C19>  (12) 
N

>  <2D6>  (12) 
N

>  <2E1>  (12) 
N

>  <3A4>  (12) 
N

>  <Citation>  (12) 
Nucleic Acids Res. 2018. Jan 4;46(D1):D608-17. PMID:29140435
Nucleic Acids Res. 2018 Jan 4;46(D1):D1074-D1082. PMID:29126136
Nucleic Acids Res., 45:D380-388 (2017).  PMID:27924025
Nucleic Acids Res. 2016 Jan 4;44(D1):D1202-13. PMID:26400175

>  <ROMol>  (12) 
<rdkit.Chem.rdchem.Mol object at 0x7c29060d5fc0>

>  <Drug_like>  (12) 
True

$$$$
DINOSEB acetATE
     RDKit          2D

 20 20  0  0  0  0  0  0  0  0999 V2000
    4.0536   -0.8405    0.0000 C   0  0  0  0  0  0  0  0  0  0  0  0
    4.0531    0.6603    0.0000 C   0  0  0  0  0  0  0  0  0  0  0  0
    2.7536    1.4111    0.0000 C   0  0  0  0  0  0  0  0  0  0  0  0
    2.7539    2.9111    0.0000 O   0  0  0  0  0  0  0  0  0  0  0  0
    1.4549    3.6614    0.0000 C   0  0  0  0  0  0  0  0  0  0  0  0
    0.1558    2.9116    0.0000 O   0  0  0  0  0  0  0  0  0  0  0  0
    1.4552    5.1614    0.0000 C   0  0  0  0  0  0  0  0  0  0  0  0
    1.4546    0.6611    0.0000 C   0  0  0  0  0  0  0  0  0  0  0  0
    1.4551   -0.8397    0.0000 C   0  0  0  0  0  0  0  0  0  0  0  0
    2.7546   -1.5905    0.0000 C   0  0  0  0  0  0  0  0  0  0  0  0
    2.7543   -3.0905    0.0000 N   0  0  0  0  0  0  0  0  0  0  0  0
    4.0533   -3.8407    0.0000 O   0  0  0  0  0  0  0  0  0  0  0  0
    1.4552   -3.8403    0.0000 O   0  0  0  0  0  0  0  0  0  0  0  0
    0.1554    1.4109    0.0000 C   0  0  0  0  0  0  0  0  0  0  0  0
   -0.8089    2.5598    0.0000 C   0  0  0  0  0  0  0  0  0  0  0  0
   -1.9748    0.1806    0.0000 C   0  0  0  0  0  0  0  0  0  0  0  0
   -3.2740    0.9304    0.0000 C   0  0  0  0  0  0  0  0  0  0  0  0
    5.3522    1.4103    0.0000 N   0  0  0  0  0  0  0  0  0  0  0  0
    6.6512    0.6603    0.0000 O   0  0  0  0  0  0  0  0  0  0  0  0
    5.3522    2.9103    0.0000 O   0  0  0  0  0  0  0  0  0  0  0  0
  1  2  2  0
  2  3  1  0
  3  4  1  0
  4  5  1  0
  5  6  2  0
  5  7  1  0
  3  8  2  0
  8  9  1  0
  9 10  2  0
  1 10  1  0
 10 11  1  0
 11 12  1  0
 11 13  2  0
  8 14  1  0
 14 15  1  0
 14 16  1  0
 16 17  1  0
  2 18  1  0
 18 19  1  0
 18 20  2  0
M  CHG  4  11   1  12  -1  18   1  19  -1
M  END
>  <cdk:Title>  (13) 
DINOSEB acetATE

>  <1A2>  (13) 
N

>  <2A6>  (13) 
N

>  <2B6>  (13) 
N

>  <2C8>  (13) 
N

>  <2C9>  (13) 
N

>  <2C19>  (13) 
N

>  <2D6>  (13) 
N

>  <2E1>  (13) 
N

>  <3A4>  (13) 
N

>  <Citation>  (13) 
Nucleic Acids Res. 2018. Jan 4;46(D1):D608-17. PMID:29140435
Nucleic Acids Res. 2018 Jan 4;46(D1):D1074-D1082. PMID:29126136
Nucleic Acids Res., 45:D380-388 (2017).  PMID:27924025
Nucleic Acids Res. 2016 Jan 4;44(D1):D1202-13. PMID:26400175

>  <ROMol>  (13) 
<rdkit.Chem.rdchem.Mol object at 0x7c29060d60a0>

>  <Drug_like>  (13) 
True

$$$$
Cystathionine sulfoxide
     RDKit          2D

 15 14  0  0  0  0  0  0  0  0999 V2000
    8.6256    0.4800    0.0000 S   0  0  0  0  0  0  0  0  0  0  0  0
    8.6256    1.9800    0.0000 O   0  0  0  0  0  0  0  0  0  0  0  0
    9.9247   -0.2700    0.0000 C   0  0  0  0  0  0  0  0  0  0  0  0
   11.2237    0.4800    0.0000 C   0  0  0  0  0  0  0  0  0  0  0  0
   12.1879    1.6291    0.0000 N   0  0  0  0  0  0  0  0  0  0  0  0
   12.5227   -0.2700    0.0000 C   0  0  0  0  0  0  0  0  0  0  0  0
   13.8218    0.4800    0.0000 O   0  0  0  0  0  0  0  0  0  0  0  0
   12.5227   -1.7700    0.0000 O   0  0  0  0  0  0  0  0  0  0  0  0
    6.9109   -0.5100    0.0000 C   0  0  0  0  0  0  0  0  0  0  0  0
    5.6118    0.2400    0.0000 C   0  0  0  0  0  0  0  0  0  0  0  0
    3.8971   -0.7500    0.0000 C   0  0  0  0  0  0  0  0  0  0  0  0
    2.9329   -1.8991    0.0000 N   0  0  0  0  0  0  0  0  0  0  0  0
    2.5981    0.0000    0.0000 C   0  0  0  0  0  0  0  0  0  0  0  0
    1.2990   -0.7500    0.0000 O   0  0  0  0  0  0  0  0  0  0  0  0
    2.5981    1.5000    0.0000 O   0  0  0  0  0  0  0  0  0  0  0  0
  1  2  2  0
  1  3  1  1
  3  4  1  0
  4  5  1  0
  4  6  1  0
  6  7  1  0
  6  8  2  0
  1  9  1  0
  9 10  1  0
 10 11  1  0
 11 12  1  0
 11 13  1  0
 13 14  1  0
 13 15  2  0
M  END
>  <cdk:Title>  (14) 
Cystathionine sulfoxide

>  <1A2>  (14) 
N

>  <2A6>  (14) 
N

>  <2B6>  (14) 
N

>  <2C8>  (14) 
N

>  <2C9>  (14) 
N

>  <2C19>  (14) 
N

>  <2D6>  (14) 
N

>  <2E1>  (14) 
N

>  <3A4>  (14) 
N

>  <Citation>  (14) 
Nucleic Acids Res. 2018. Jan 4;46(D1):D608-17. PMID:29140435
Nucleic Acids Res. 2018 Jan 4;46(D1):D1074-D1082. PMID:29126136
Nucleic Acids Res., 45:D380-388 (2017).  PMID:27924025
Nucleic Acids Res. 2016 Jan 4;44(D1):D1202-13. PMID:26400175

>  <ROMol>  (14) 
<rdkit.Chem.rdchem.Mol object at 0x7c29060d61f0>

>  <Drug_like>  (14) 
True

$$$$
Tyrosyltyrosine
     RDKit          2D

 25 26  0  0  0  0  0  0  0  0999 V2000
    5.2008    1.4808    0.0000 N   0  0  0  0  0  0  0  0  0  0  0  0
    5.2081    2.9808    0.0000 C   0  0  0  0  0  0  0  0  0  0  0  0
    3.9128    3.7372    0.0000 O   0  0  0  0  0  0  0  0  0  0  0  0
    6.5109    3.7244    0.0000 C   0  0  0  0  0  0  0  0  0  0  0  0
    5.5523    4.8782    0.0000 N   0  0  0  0  0  0  0  0  0  0  0  0
    7.8062    2.9680    0.0000 C   0  0  0  0  0  0  0  0  0  0  0  0
    9.1089    3.7116    0.0000 C   0  0  0  0  0  0  0  0  0  0  0  0
   10.4005    2.9488    0.0000 C   0  0  0  0  0  0  0  0  0  0  0  0
   11.6921    3.6610    0.0000 C   0  0  0  0  0  0  0  0  0  0  0  0
   11.7328    5.2048    0.0000 C   0  0  0  0  0  0  0  0  0  0  0  0
   13.0452    5.9312    0.0000 O   0  0  0  0  0  0  0  0  0  0  0  0
   10.4412    5.9676    0.0000 C   0  0  0  0  0  0  0  0  0  0  0  0
    9.1089    5.1865    0.0000 C   0  0  0  0  0  0  0  0  0  0  0  0
    3.8980    0.7372    0.0000 C   0  0  0  0  0  0  0  0  0  0  0  0
    2.6027    1.4936    0.0000 C   0  0  0  0  0  0  0  0  0  0  0  0
    1.3000    0.7500    0.0000 C   0  0  0  0  0  0  0  0  0  0  0  0
    0.0084    1.5128    0.0000 C   0  0  0  0  0  0  0  0  0  0  0  0
   -1.2832    0.8006    0.0000 C   0  0  0  0  0  0  0  0  0  0  0  0
   -1.3239   -0.7432    0.0000 C   0  0  0  0  0  0  0  0  0  0  0  0
   -2.6363   -1.4696    0.0000 O   0  0  0  0  0  0  0  0  0  0  0  0
   -0.0323   -1.5060    0.0000 C   0  0  0  0  0  0  0  0  0  0  0  0
    1.3000   -0.7249    0.0000 C   0  0  0  0  0  0  0  0  0  0  0  0
    4.8566   -0.4166    0.0000 C   0  0  0  0  0  0  0  0  0  0  0  0
    4.3366   -1.8236    0.0000 O   0  0  0  0  0  0  0  0  0  0  0  0
    6.3350   -0.1634    0.0000 O   0  0  0  0  0  0  0  0  0  0  0  0
  1  2  1  0
  2  3  2  0
  2  4  1  0
  4  5  1  0
  4  6  1  0
  6  7  1  0
  7  8  2  0
  8  9  1  0
  9 10  2  0
 10 11  1  0
 10 12  1  0
 12 13  2  0
  7 13  1  0
  1 14  1  0
 14 15  1  0
 15 16  1  0
 16 17  2  0
 17 18  1  0
 18 19  2  0
 19 20  1  0
 19 21  1  0
 21 22  2  0
 16 22  1  0
 14 23  1  0
 23 24  1  0
 23 25  2  0
M  END
>  <cdk:Title>  (15) 
Tyrosyltyrosine

>  <1A2>  (15) 
N

>  <2A6>  (15) 
N

>  <2B6>  (15) 
N

>  <2C8>  (15) 
N

>  <2C9>  (15) 
N

>  <2C19>  (15) 
N

>  <2D6>  (15) 
N

>  <2E1>  (15) 
N

>  <3A4>  (15) 
N

>  <Citation>  (15) 
Nucleic Acids Res. 2018. Jan 4;46(D1):D608-17. PMID:29140435
Nucleic Acids Res. 2018 Jan 4;46(D1):D1074-D1082. PMID:29126136
Nucleic Acids Res., 45:D380-388 (2017).  PMID:27924025
Nucleic Acids Res. 2016 Jan 4;44(D1):D1202-13. PMID:26400175

>  <ROMol>  (15) 
<rdkit.Chem.rdchem.Mol object at 0x7c29060d6260>

>  <Drug_like>  (15) 
True

$$$$
5-Hexyltetrahydro-2-furanoctanoic acid
     RDKit          2D

 21 21  0  0  0  0  0  0  0  0999 V2000
   11.1472    0.4644    0.0000 C   0  0  0  0  0  0  0  0  0  0  0  0
    9.9353   -0.4194    0.0000 C   0  0  0  0  0  0  0  0  0  0  0  0
    8.5639    0.1882    0.0000 C   0  0  0  0  0  0  0  0  0  0  0  0
    6.1885   -1.5442    0.0000 C   0  0  0  0  0  0  0  0  0  0  0  0
    4.3782   -0.7421    0.0000 C   0  0  0  0  0  0  0  0  0  0  0  0
    3.1662   -1.6259    0.0000 C   0  0  0  0  0  0  0  0  0  0  0  0
    0.4783   -0.4350    0.0000 C   0  0  0  0  0  0  0  0  0  0  0  0
    0.0183   -1.8650    0.0000 C   0  0  0  0  0  0  0  0  0  0  0  0
   -1.4817   -1.8650    0.0000 C   0  0  0  0  0  0  0  0  0  0  0  0
   -1.9417   -0.4350    0.0000 C   0  0  0  0  0  0  0  0  0  0  0  0
   -2.6909    0.8646    0.0000 C   0  0  0  0  0  0  0  0  0  0  0  0
   -4.6709    0.8659    0.0000 C   0  0  0  0  0  0  0  0  0  0  0  0
   -5.6597    2.5813    0.0000 C   0  0  0  0  0  0  0  0  0  0  0  0
   -7.6397    2.5826    0.0000 C   0  0  0  0  0  0  0  0  0  0  0  0
   -8.6286    4.2980    0.0000 C   0  0  0  0  0  0  0  0  0  0  0  0
  -10.6086    4.2993    0.0000 C   0  0  0  0  0  0  0  0  0  0  0  0
  -11.3577    5.5988    0.0000 C   0  0  0  0  0  0  0  0  0  0  0  0
  -12.8577    5.5998    0.0000 C   0  0  0  0  0  0  0  0  0  0  0  0
  -13.6086    4.3012    0.0000 O   0  0  0  0  0  0  0  0  0  0  0  0
  -13.6069    6.8993    0.0000 O   0  0  0  0  0  0  0  0  0  0  0  0
   -0.7317    0.4450    0.0000 O   0  0  0  0  0  0  0  0  0  0  0  0
  1  2  1  0
  2  3  1  0
  3  4  1  0
  4  5  1  0
  5  6  1  0
  6  7  1  0
  7  8  1  0
  8  9  1  0
  9 10  1  0
 10 11  1  0
 11 12  1  0
 12 13  1  0
 13 14  1  0
 14 15  1  0
 15 16  1  0
 16 17  1  0
 17 18  1  0
 18 19  2  0
 18 20  1  0
 10 21  1  0
  7 21  1  0
M  END
>  <cdk:Title>  (16) 
5-Hexyltetrahydro-2-furanoctanoic acid

>  <1A2>  (16) 
N

>  <2A6>  (16) 
N

>  <2B6>  (16) 
N

>  <2C8>  (16) 
N

>  <2C9>  (16) 
N

>  <2C19>  (16) 
N

>  <2D6>  (16) 
N

>  <2E1>  (16) 
N

>  <3A4>  (16) 
N

>  <Citation>  (16) 
Nucleic Acids Res. 2018. Jan 4;46(D1):D608-17. PMID:29140435
Nucleic Acids Res. 2018 Jan 4;46(D1):D1074-D1082. PMID:29126136
Nucleic Acids Res., 45:D380-388 (2017).  PMID:27924025
Nucleic Acids Res. 2016 Jan 4;44(D1):D1202-13. PMID:26400175

>  <ROMol>  (16) 
<rdkit.Chem.rdchem.Mol object at 0x7c29060d62d0>

>  <Drug_like>  (16) 
True

$$$$
Koraiol
     RDKit          2D

 16 18  0  0  0  0  0  0  0  0999 V2000
    2.6339    0.4213    0.0000 C   0  0  0  0  0  0  0  0  0  0  0  0
    1.2005    0.8634    0.0000 C   0  0  0  0  0  0  0  0  0  0  0  0
    2.0671    3.6728    0.0000 C   0  0  0  0  0  0  0  0  0  0  0  0
    0.7584   -0.5699    0.0000 C   0  0  0  0  0  0  0  0  0  0  0  0
   -0.6749   -0.1278    0.0000 C   0  0  0  0  0  0  0  0  0  0  0  0
   -0.2328    1.3056    0.0000 C   0  0  0  0  0  0  0  0  0  0  0  0
   -1.0778    2.5449    0.0000 C   0  0  0  0  0  0  0  0  0  0  0  0
   -2.5736    2.6570    0.0000 C   0  0  0  0  0  0  0  0  0  0  0  0
   -3.5939    1.5575    0.0000 C   0  0  0  0  0  0  0  0  0  0  0  0
   -5.2500    3.9866    0.0000 C   0  0  0  0  0  0  0  0  0  0  0  0
   -3.3703    0.0742    0.0000 C   0  0  0  0  0  0  0  0  0  0  0  0
   -4.1203   -1.2248    0.0000 C   0  0  0  0  0  0  0  0  0  0  0  0
   -2.8213   -1.9748    0.0000 C   0  0  0  0  0  0  0  0  0  0  0  0
   -2.0713   -0.6758    0.0000 C   0  0  0  0  0  0  0  0  0  0  0  0
   -0.5696   -3.2034    0.0000 C   0  0  0  0  0  0  0  0  0  0  0  0
   -5.8838    0.6587    0.0000 O   0  0  0  0  0  0  0  0  0  0  0  0
  1  2  1  0
  2  3  1  0
  2  4  1  0
  4  5  1  0
  5  6  1  0
  2  6  1  0
  6  7  1  0
  7  8  1  0
  8  9  1  0
  9 10  1  6
  9 11  1  0
 11 12  1  0
 12 13  1  0
 13 14  1  0
  5 14  1  0
 11 14  1  0
 14 15  1  1
  9 16  1  0
M  END
>  <cdk:Title>  (17) 
Koraiol

>  <1A2>  (17) 
N

>  <2A6>  (17) 
N

>  <2B6>  (17) 
N

>  <2C8>  (17) 
N

>  <2C9>  (17) 
N

>  <2C19>  (17) 
N

>  <2D6>  (17) 
N

>  <2E1>  (17) 
N

>  <3A4>  (17) 
N

>  <Citation>  (17) 
Nucleic Acids Res. 2018. Jan 4;46(D1):D608-17. PMID:29140435
Nucleic Acids Res. 2018 Jan 4;46(D1):D1074-D1082. PMID:29126136
Nucleic Acids Res., 45:D380-388 (2017).  PMID:27924025
Nucleic Acids Res. 2016 Jan 4;44(D1):D1202-13. PMID:26400175

>  <ROMol>  (17) 
<rdkit.Chem.rdchem.Mol object at 0x7c29060d6340>

>  <Drug_like>  (17) 
True

$$$$
AC1l4JS1
     RDKit          2D

 22 26  0  0  0  0  0  0  0  0999 V2000
    1.9411    3.9848    0.0000 O   0  0  0  0  0  0  0  0  0  0  0  0
    3.3319    3.4229    0.0000 C   0  0  0  0  0  0  0  0  0  0  0  0
   -0.3756    2.1748    0.0000 C   0  0  0  0  0  0  0  0  0  0  0  0
    0.7391    1.1711    0.0000 C   0  0  0  0  0  0  0  0  0  0  0  0
    0.4272   -0.2962    0.0000 C   0  0  0  0  0  0  0  0  0  0  0  0
   -0.9994   -0.7597    0.0000 C   0  0  0  0  0  0  0  0  0  0  0  0
   -1.6095   -2.1300    0.0000 C   0  0  0  0  0  0  0  0  0  0  0  0
   -3.1012   -1.9732    0.0000 C   0  0  0  0  0  0  0  0  0  0  0  0
   -3.4131   -0.5060    0.0000 N   0  0  0  0  0  0  0  0  0  0  0  0
   -4.7122    0.2440    0.0000 C   0  0  0  0  0  0  0  0  0  0  0  0
   -4.7122    1.7440    0.0000 C   0  0  0  0  0  0  0  0  0  0  0  0
   -3.4131    2.4940    0.0000 C   0  0  0  0  0  0  0  0  0  0  0  0
   -3.4131    3.9940    0.0000 C   0  0  0  0  0  0  0  0  0  0  0  0
   -2.1141    4.7440    0.0000 C   0  0  0  0  0  0  0  0  0  0  0  0
   -1.8022    6.2112    0.0000 O   0  0  0  0  0  0  0  0  0  0  0  0
   -0.3104    6.3680    0.0000 C   0  0  0  0  0  0  0  0  0  0  0  0
    0.2997    4.9977    0.0000 O   0  0  0  0  0  0  0  0  0  0  0  0
   -0.8150    3.9940    0.0000 C   0  0  0  0  0  0  0  0  0  0  0  0
   -0.8150    2.4940    0.0000 C   0  0  0  0  0  0  0  0  0  0  0  0
   -2.1141    1.7440    0.0000 C   0  0  0  0  0  0  0  0  0  0  0  0
   -2.1141    0.2440    0.0000 C   0  0  0  0  0  0  0  0  0  0  0  0
   -1.8022    1.7112    0.0000 C   0  0  0  0  0  0  0  0  0  0  0  0
  1  2  1  0
  1  3  1  0
  3  4  1  0
  4  5  2  0
  5  6  1  0
  6  7  2  0
  7  8  1  0
  8  9  1  0
  9 10  1  0
 10 11  1  0
 11 12  1  0
 12 13  2  0
 13 14  1  0
 14 15  1  0
 15 16  1  0
 16 17  1  0
 17 18  1  0
 14 18  2  0
 18 19  1  0
 19 20  2  0
 12 20  1  0
 20 21  1  0
  9 21  1  0
 21  6  1  0
 21 22  1  6
  3 22  1  0
M  END
>  <cdk:Title>  (18) 
AC1l4JS1

>  <1A2>  (18) 
N

>  <2A6>  (18) 
N

>  <2B6>  (18) 
N

>  <2C8>  (18) 
N

>  <2C9>  (18) 
N

>  <2C19>  (18) 
N

>  <2D6>  (18) 
N

>  <2E1>  (18) 
N

>  <3A4>  (18) 
N

>  <Citation>  (18) 
Nucleic Acids Res. 2018. Jan 4;46(D1):D608-17. PMID:29140435
Nucleic Acids Res. 2018 Jan 4;46(D1):D1074-D1082. PMID:29126136
Nucleic Acids Res., 45:D380-388 (2017).  PMID:27924025
Nucleic Acids Res. 2016 Jan 4;44(D1):D1202-13. PMID:26400175

>  <ROMol>  (18) 
<rdkit.Chem.rdchem.Mol object at 0x7c29060d63b0>

>  <Drug_like>  (18) 
True

$$$$
17_23-Epoxy-29-hydroxy-27-norlanost-8-ene-3_15_24-trione
     RDKit          2D

 34 38  0  0  0  0  0  0  0  0999 V2000
    0.5431    0.2402    0.0000 C   0  0  0  0  0  0  0  0  0  0  0  0
   -0.2069   -1.0588    0.0000 C   0  0  0  0  0  0  0  0  0  0  0  0
   -1.7069   -1.0588    0.0000 C   0  0  0  0  0  0  0  0  0  0  0  0
   -2.4569    0.2402    0.0000 C   0  0  0  0  0  0  0  0  0  0  0  0
   -1.7069    1.5393    0.0000 C   0  0  0  0  0  0  0  0  0  0  0  0
   -2.4569    2.8383    0.0000 C   0  0  0  0  0  0  0  0  0  0  0  0
   -3.9569    2.8383    0.0000 C   0  0  0  0  0  0  0  0  0  0  0  0
   -4.7069    1.5393    0.0000 C   0  0  0  0  0  0  0  0  0  0  0  0
   -6.1529    3.5294    0.0000 C   0  0  0  0  0  0  0  0  0  0  0  0
   -6.1741    1.2274    0.0000 C   0  0  0  0  0  0  0  0  0  0  0  0
   -6.3309   -0.2644    0.0000 C   0  0  0  0  0  0  0  0  0  0  0  0
   -4.9606   -0.8745    0.0000 C   0  0  0  0  0  0  0  0  0  0  0  0
   -3.9569    0.2402    0.0000 C   0  0  0  0  0  0  0  0  0  0  0  0
   -3.7853   -2.2138    0.0000 C   0  0  0  0  0  0  0  0  0  0  0  0
   -4.6488   -2.3417    0.0000 O   0  0  0  0  0  0  0  0  0  0  0  0
   -7.6414    0.9155    0.0000 O   0  0  0  0  0  0  0  0  0  0  0  0
   -8.3914    2.2146    0.0000 C   0  0  0  0  0  0  0  0  0  0  0  0
   -7.3877    3.3293    0.0000 C   0  0  0  0  0  0  0  0  0  0  0  0
   -6.0174    2.7192    0.0000 C   0  0  0  0  0  0  0  0  0  0  0  0
   -4.5501    2.4073    0.0000 C   0  0  0  0  0  0  0  0  0  0  0  0
   -9.7162    3.6860    0.0000 C   0  0  0  0  0  0  0  0  0  0  0  0
  -11.1835    3.3741    0.0000 C   0  0  0  0  0  0  0  0  0  0  0  0
  -12.1872    4.4888    0.0000 C   0  0  0  0  0  0  0  0  0  0  0  0
   -9.2527    5.1126    0.0000 O   0  0  0  0  0  0  0  0  0  0  0  0
   -0.2069    1.5393    0.0000 C   0  0  0  0  0  0  0  0  0  0  0  0
   -0.2069    4.4793    0.0000 C   0  0  0  0  0  0  0  0  0  0  0  0
    0.5431    2.8383    0.0000 C   0  0  0  0  0  0  0  0  0  0  0  0
    2.0431    2.8383    0.0000 C   0  0  0  0  0  0  0  0  0  0  0  0
    2.7931    1.5393    0.0000 C   0  0  0  0  0  0  0  0  0  0  0  0
    4.2931    1.5393    0.0000 O   0  0  0  0  0  0  0  0  0  0  0  0
    2.0431    0.2402    0.0000 C   0  0  0  0  0  0  0  0  0  0  0  0
    1.6159   -2.1824    0.0000 C   0  0  0  0  0  0  0  0  0  0  0  0
    4.8058   -0.7653    0.0000 C   0  0  0  0  0  0  0  0  0  0  0  0
    5.9548    0.1989    0.0000 O   0  0  0  0  0  0  0  0  0  0  0  0
  1  2  1  0
  2  3  1  0
  3  4  1  0
  4  5  2  0
  5  6  1  0
  6  7  1  0
  7  8  1  0
  8  9  1  1
  8 10  1  0
 10 11  1  6
 11 12  1  0
 12 13  1  0
  4 13  1  0
  8 13  1  0
 13 14  1  1
 12 15  2  0
 10 16  1  0
 16 17  1  0
 17 18  1  0
 18 19  1  0
 10 19  1  0
 19 20  1  0
 17 21  1  0
 21 22  1  0
 22 23  1  0
 21 24  2  0
  5 25  1  0
  1 25  1  0
 25 26  1  1
 25 27  1  0
 27 28  1  0
 28 29  1  0
 29 30  2  0
 29 31  1  0
  1 31  1  0
 31 32  1  6
 31 33  1  0
 33 34  1  0
M  END
>  <cdk:Title>  (19) 
17_23-Epoxy-29-hydroxy-27-norlanost-8-ene-3_15_24-trione

>  <1A2>  (19) 
N

>  <2A6>  (19) 
N

>  <2B6>  (19) 
N

>  <2C8>  (19) 
N

>  <2C9>  (19) 
N

>  <2C19>  (19) 
N

>  <2D6>  (19) 
N

>  <2E1>  (19) 
N

>  <3A4>  (19) 
N

>  <Citation>  (19) 
Nucleic Acids Res. 2018. Jan 4;46(D1):D608-17. PMID:29140435
Nucleic Acids Res. 2018 Jan 4;46(D1):D1074-D1082. PMID:29126136
Nucleic Acids Res., 45:D380-388 (2017).  PMID:27924025
Nucleic Acids Res. 2016 Jan 4;44(D1):D1202-13. PMID:26400175

>  <ROMol>  (19) 
<rdkit.Chem.rdchem.Mol object at 0x7c29060d6420>

>  <Drug_like>  (19) 
True

$$$$
Neotussilagolactone
     RDKit          2D

 25 26  0  0  0  0  0  0  0  0999 V2000
   12.1527   -2.1818    0.0000 C   0  0  0  0  0  0  0  0  0  0  0  0
   11.0034   -1.2179    0.0000 C   0  0  0  0  0  0  0  0  0  0  0  0
    9.5940   -1.7312    0.0000 C   0  0  0  0  0  0  0  0  0  0  0  0
    8.4447   -0.7673    0.0000 C   0  0  0  0  0  0  0  0  0  0  0  0
    7.0353   -1.2806    0.0000 C   0  0  0  0  0  0  0  0  0  0  0  0
    6.7752   -2.7579    0.0000 O   0  0  0  0  0  0  0  0  0  0  0  0
    5.8860   -0.3167    0.0000 O   0  0  0  0  0  0  0  0  0  0  0  0
    4.4766   -0.8300    0.0000 C   0  0  0  0  0  0  0  0  0  0  0  0
    3.3275   -1.7942    0.0000 C   0  0  0  0  0  0  0  0  0  0  0  0
    1.9174   -1.2804    0.0000 C   0  0  0  0  0  0  0  0  0  0  0  0
   -0.3348   -3.1702    0.0000 C   0  0  0  0  0  0  0  0  0  0  0  0
    0.9643   -3.9202    0.0000 C   0  0  0  0  0  0  0  0  0  0  0  0
   -2.2847   -2.8264    0.0000 C   0  0  0  0  0  0  0  0  0  0  0  0
    1.6563    0.1976    0.0000 C   0  0  0  0  0  0  0  0  0  0  0  0
    0.2461    0.7113    0.0000 C   0  0  0  0  0  0  0  0  0  0  0  0
   -2.6492    0.2008    0.0000 C   0  0  0  0  0  0  0  0  0  0  0  0
   -3.6134    1.3499    0.0000 C   0  0  0  0  0  0  0  0  0  0  0  0
   -0.0150    2.1893    0.0000 C   0  0  0  0  0  0  0  0  0  0  0  0
   -1.4246    2.7021    0.0000 O   0  0  0  0  0  0  0  0  0  0  0  0
    1.1341    3.1534    0.0000 O   0  0  0  0  0  0  0  0  0  0  0  0
    2.5443    2.6397    0.0000 C   0  0  0  0  0  0  0  0  0  0  0  0
    2.8054    1.1617    0.0000 C   0  0  0  0  0  0  0  0  0  0  0  0
    4.2155    0.6480    0.0000 C   0  0  0  0  0  0  0  0  0  0  0  0
    5.3646    1.6121    0.0000 C   0  0  0  0  0  0  0  0  0  0  0  0
    9.3339   -3.2085    0.0000 C   0  0  0  0  0  0  0  0  0  0  0  0
  1  2  1  0
  2  3  1  0
  3  4  2  0
  4  5  1  0
  5  6  2  0
  5  7  1  0
  7  8  1  0
  8  9  1  0
  9 10  2  0
 10 11  1  0
 11 12  1  0
 11 13  1  0
 10 14  1  0
 14 15  1  0
 15 16  2  0
 16 17  1  0
 15 18  1  0
 18 19  2  0
 18 20  1  0
 20 21  1  0
 21 22  1  0
 14 22  1  0
 22 23  1  0
  8 23  1  0
 23 24  2  0
  3 25  1  0
M  END
>  <cdk:Title>  (20) 
Neotussilagolactone

>  <1A2>  (20) 
N

>  <2A6>  (20) 
N

>  <2B6>  (20) 
N

>  <2C8>  (20) 
N

>  <2C9>  (20) 
N

>  <2C19>  (20) 
N

>  <2D6>  (20) 
N

>  <2E1>  (20) 
N

>  <3A4>  (20) 
N

>  <Citation>  (20) 
Nucleic Acids Res. 2018. Jan 4;46(D1):D608-17. PMID:29140435
Nucleic Acids Res. 2018 Jan 4;46(D1):D1074-D1082. PMID:29126136
Nucleic Acids Res., 45:D380-388 (2017).  PMID:27924025
Nucleic Acids Res. 2016 Jan 4;44(D1):D1202-13. PMID:26400175

>  <ROMol>  (20) 
<rdkit.Chem.rdchem.Mol object at 0x7c29060d6570>

>  <Drug_like>  (20) 
True

$$$$
SCHEMBL18439905
     RDKit          2D

 33 37  0  0  0  0  0  0  0  0999 V2000
    2.6537    8.0396    0.0000 C   0  0  0  0  0  0  0  0  0  0  0  0
    0.7641    5.7872    0.0000 C   0  0  0  0  0  0  0  0  0  0  0  0
   -0.5359    5.0372    0.0000 C   0  0  0  0  0  0  0  0  0  0  0  0
   -1.3768    7.3491    0.0000 C   0  0  0  0  0  0  0  0  0  0  0  0
   -0.5359    3.5372    0.0000 C   0  0  0  0  0  0  0  0  0  0  0  0
   -1.8359    2.7872    0.0000 C   0  0  0  0  0  0  0  0  0  0  0  0
   -3.1359    3.5372    0.0000 C   0  0  0  0  0  0  0  0  0  0  0  0
   -4.4259    2.7872    0.0000 C   0  0  0  0  0  0  0  0  0  0  0  0
   -4.4259    1.2872    0.0000 C   0  0  0  0  0  0  0  0  0  0  0  0
   -5.7259    0.5372    0.0000 C   0  0  0  0  0  0  0  0  0  0  0  0
   -5.7259    3.4772    0.0000 C   0  0  0  0  0  0  0  0  0  0  0  0
   -7.0259    1.2872    0.0000 C   0  0  0  0  0  0  0  0  0  0  0  0
   -8.3259    0.5372    0.0000 C   0  0  0  0  0  0  0  0  0  0  0  0
   -8.3259   -0.9628    0.0000 C   0  0  0  0  0  0  0  0  0  0  0  0
   -7.0259   -1.7128    0.0000 C   0  0  0  0  0  0  0  0  0  0  0  0
   -8.9154   -3.9651    0.0000 C   0  0  0  0  0  0  0  0  0  0  0  0
   -6.1848   -4.0245    0.0000 C   0  0  0  0  0  0  0  0  0  0  0  0
   -5.7259   -0.9628    0.0000 C   0  0  0  0  0  0  0  0  0  0  0  0
   -4.4259   -1.7128    0.0000 C   0  0  0  0  0  0  0  0  0  0  0  0
   -3.1359   -0.9628    0.0000 C   0  0  0  0  0  0  0  0  0  0  0  0
   -3.1359    0.5372    0.0000 C   0  0  0  0  0  0  0  0  0  0  0  0
   -0.8840   -1.3529    0.0000 C   0  0  0  0  0  0  0  0  0  0  0  0
   -1.8359    1.2872    0.0000 C   0  0  0  0  0  0  0  0  0  0  0  0
   -0.5359    0.5372    0.0000 C   0  0  0  0  0  0  0  0  0  0  0  0
    0.7641    1.2872    0.0000 C   0  0  0  0  0  0  0  0  0  0  0  0
    0.7641    2.7872    0.0000 C   0  0  0  0  0  0  0  0  0  0  0  0
    3.3100    1.3168    0.0000 C   0  0  0  0  0  0  0  0  0  0  0  0
    2.0641    3.5372    0.0000 C   0  0  0  0  0  0  0  0  0  0  0  0
    2.0641    5.0372    0.0000 C   0  0  0  0  0  0  0  0  0  0  0  0
    3.5414    4.7769    0.0000 O   0  0  0  0  0  0  0  0  0  0  0  0
    1.7691   -1.4757    0.0000 O   0  0  0  0  0  0  0  0  0  0  0  0
   -1.8359   -1.6528    0.0000 C   0  0  0  0  0  0  0  0  0  0  0  0
   -9.8031   -0.7025    0.0000 O   0  0  0  0  0  0  0  0  0  0  0  0
  1  2  1  0
  2  3  1  0
  3  4  1  0
  3  5  1  0
  5  6  1  0
  6  7  2  0
  7  8  1  0
  8  9  1  0
  9 10  1  0
 10 11  1  6
 10 12  1  0
 12 13  1  0
 13 14  1  0
 14 15  1  0
 15 16  1  0
 15 17  1  0
 15 18  1  0
 10 18  1  0
 18 19  1  0
 19 20  1  0
 20 21  1  0
  9 21  1  0
 21 22  1  6
 21 23  1  0
  6 23  1  0
 23 24  1  0
 24 25  1  0
 25 26  1  0
  5 26  1  0
 26 27  1  1
 26 28  1  0
 28 29  1  0
  2 29  1  0
 29 30  1  0
 25 31  1  0
 23 32  1  6
 14 33  1  0
M  END
>  <cdk:Title>  (21) 
SCHEMBL18439905

>  <1A2>  (21) 
N

>  <2A6>  (21) 
N

>  <2B6>  (21) 
N

>  <2C8>  (21) 
N

>  <2C9>  (21) 
N

>  <2C19>  (21) 
N

>  <2D6>  (21) 
N

>  <2E1>  (21) 
N

>  <3A4>  (21) 
N

>  <Citation>  (21) 
Nucleic Acids Res. 2018. Jan 4;46(D1):D608-17. PMID:29140435
Nucleic Acids Res. 2018 Jan 4;46(D1):D1074-D1082. PMID:29126136
Nucleic Acids Res., 45:D380-388 (2017).  PMID:27924025
Nucleic Acids Res. 2016 Jan 4;44(D1):D1202-13. PMID:26400175

>  <ROMol>  (21) 
<rdkit.Chem.rdchem.Mol object at 0x7c29060d65e0>

>  <Drug_like>  (21) 
True

$$$$
Acetoxy valerenic acid
     RDKit          2D

 21 22  0  0  0  0  0  0  0  0999 V2000
    0.5711    3.3846    0.0000 C   0  0  0  0  0  0  0  0  0  0  0  0
   -0.3930    2.2355    0.0000 C   0  0  0  0  0  0  0  0  0  0  0  0
   -1.6930    1.4855    0.0000 C   0  0  0  0  0  0  0  0  0  0  0  0
   -1.6930   -0.0145    0.0000 C   0  0  0  0  0  0  0  0  0  0  0  0
   -0.3930   -0.7645    0.0000 C   0  0  0  0  0  0  0  0  0  0  0  0
   -1.9741   -2.6492    0.0000 C   0  0  0  0  0  0  0  0  0  0  0  0
   -1.4609   -4.0587    0.0000 C   0  0  0  0  0  0  0  0  0  0  0  0
    0.0164   -4.3190    0.0000 C   0  0  0  0  0  0  0  0  0  0  0  0
   -2.4249   -5.2078    0.0000 C   0  0  0  0  0  0  0  0  0  0  0  0
   -3.9022   -4.9475    0.0000 O   0  0  0  0  0  0  0  0  0  0  0  0
   -1.9118   -6.6173    0.0000 O   0  0  0  0  0  0  0  0  0  0  0  0
    0.9070   -0.0145    0.0000 C   0  0  0  0  0  0  0  0  0  0  0  0
    2.3370   -0.4745    0.0000 C   0  0  0  0  0  0  0  0  0  0  0  0
    2.8023   -1.9005    0.0000 C   0  0  0  0  0  0  0  0  0  0  0  0
    3.2170    0.7355    0.0000 C   0  0  0  0  0  0  0  0  0  0  0  0
    2.3370    1.9455    0.0000 C   0  0  0  0  0  0  0  0  0  0  0  0
    0.9070    1.4855    0.0000 C   0  0  0  0  0  0  0  0  0  0  0  0
    3.6365    2.6946    0.0000 O   0  0  0  0  0  0  0  0  0  0  0  0
    3.6375    4.1946    0.0000 C   0  0  0  0  0  0  0  0  0  0  0  0
    4.9371    4.9438    0.0000 C   0  0  0  0  0  0  0  0  0  0  0  0
    2.3390    4.9455    0.0000 O   0  0  0  0  0  0  0  0  0  0  0  0
  1  2  1  0
  2  3  1  0
  3  4  1  0
  4  5  1  0
  5  6  1  0
  6  7  2  0
  7  8  1  0
  7  9  1  0
  9 10  2  0
  9 11  1  0
  5 12  1  0
 12 13  2  0
 13 14  1  0
 13 15  1  0
 15 16  1  0
 16 17  1  0
  2 17  1  0
 12 17  1  0
 16 18  1  0
 18 19  1  0
 19 20  1  0
 19 21  2  0
M  END
>  <cdk:Title>  (22) 
Acetoxy valerenic acid

>  <1A2>  (22) 
N

>  <2A6>  (22) 
N

>  <2B6>  (22) 
N

>  <2C8>  (22) 
N

>  <2C9>  (22) 
N

>  <2C19>  (22) 
N

>  <2D6>  (22) 
N

>  <2E1>  (22) 
N

>  <3A4>  (22) 
N

>  <Citation>  (22) 
Nucleic Acids Res. 2018. Jan 4;46(D1):D608-17. PMID:29140435
Nucleic Acids Res. 2018 Jan 4;46(D1):D1074-D1082. PMID:29126136
Nucleic Acids Res., 45:D380-388 (2017).  PMID:27924025
Nucleic Acids Res. 2016 Jan 4;44(D1):D1202-13. PMID:26400175

>  <ROMol>  (22) 
<rdkit.Chem.rdchem.Mol object at 0x7c29060d6650>

>  <Drug_like>  (22) 
True

$$$$
Estra-1_5(10)-diene-3_4_17-trione
     RDKit          2D

 21 24  0  0  0  0  0  0  0  0999 V2000
    2.7665    3.1487    0.0000 C   0  0  0  0  0  0  0  0  0  0  0  0
    2.4554    0.2252    0.0000 C   0  0  0  0  0  0  0  0  0  0  0  0
    1.1554    0.9752    0.0000 C   0  0  0  0  0  0  0  0  0  0  0  0
   -0.1446    0.2252    0.0000 C   0  0  0  0  0  0  0  0  0  0  0  0
   -0.1446   -1.2748    0.0000 C   0  0  0  0  0  0  0  0  0  0  0  0
    1.1554   -2.0248    0.0000 C   0  0  0  0  0  0  0  0  0  0  0  0
    1.1554   -3.5248    0.0000 C   0  0  0  0  0  0  0  0  0  0  0  0
   -0.1446   -4.2748    0.0000 C   0  0  0  0  0  0  0  0  0  0  0  0
   -1.4446   -3.5248    0.0000 C   0  0  0  0  0  0  0  0  0  0  0  0
   -1.4446   -2.0248    0.0000 C   0  0  0  0  0  0  0  0  0  0  0  0
   -2.7446   -1.2748    0.0000 C   0  0  0  0  0  0  0  0  0  0  0  0
   -4.0446   -2.0248    0.0000 C   0  0  0  0  0  0  0  0  0  0  0  0
   -4.0446   -3.5248    0.0000 C   0  0  0  0  0  0  0  0  0  0  0  0
   -5.3435   -4.2750    0.0000 O   0  0  0  0  0  0  0  0  0  0  0  0
   -2.7446   -4.2748    0.0000 C   0  0  0  0  0  0  0  0  0  0  0  0
   -2.7446   -5.7748    0.0000 O   0  0  0  0  0  0  0  0  0  0  0  0
    2.4554   -1.2748    0.0000 C   0  0  0  0  0  0  0  0  0  0  0  0
    3.8854   -1.7348    0.0000 C   0  0  0  0  0  0  0  0  0  0  0  0
    4.7654   -0.5248    0.0000 C   0  0  0  0  0  0  0  0  0  0  0  0
    3.8854    0.6852    0.0000 C   0  0  0  0  0  0  0  0  0  0  0  0
    4.3507    2.1112    0.0000 O   0  0  0  0  0  0  0  0  0  0  0  0
  2  1  1  1
  2  3  1  0
  3  4  1  0
  4  5  1  0
  5  6  1  0
  6  7  1  0
  7  8  1  0
  8  9  1  0
  9 10  2  0
  5 10  1  0
 10 11  1  0
 11 12  2  0
 12 13  1  0
 13 14  2  0
 13 15  1  0
  9 15  1  0
 15 16  2  0
  6 17  1  0
  2 17  1  0
 17 18  1  0
 18 19  1  0
 19 20  1  0
  2 20  1  0
 20 21  2  0
M  END
>  <cdk:Title>  (23) 
Estra-1_5(10)-diene-3_4_17-trione

>  <1A2>  (23) 
N

>  <2A6>  (23) 
N

>  <2B6>  (23) 
N

>  <2C8>  (23) 
N

>  <2C9>  (23) 
N

>  <2C19>  (23) 
N

>  <2D6>  (23) 
N

>  <2E1>  (23) 
N

>  <3A4>  (23) 
N

>  <Citation>  (23) 
Nucleic Acids Res. 2018. Jan 4;46(D1):D608-17. PMID:29140435
Nucleic Acids Res. 2018 Jan 4;46(D1):D1074-D1082. PMID:29126136
Nucleic Acids Res., 45:D380-388 (2017).  PMID:27924025
Nucleic Acids Res. 2016 Jan 4;44(D1):D1202-13. PMID:26400175

>  <ROMol>  (23) 
<rdkit.Chem.rdchem.Mol object at 0x7c29060d66c0>

>  <Drug_like>  (23) 
True

$$$$
Citronellyl-beta-sophoroside
     RDKit          2D

 33 34  0  0  0  0  0  0  0  0999 V2000
   -5.6002   -2.6529    0.0000 C   0  0  0  0  0  0  0  0  0  0  0  0
   -5.3431   -1.1751    0.0000 C   0  0  0  0  0  0  0  0  0  0  0  0
   -6.4944   -0.2136    0.0000 C   0  0  0  0  0  0  0  0  0  0  0  0
   -3.9348   -0.6588    0.0000 C   0  0  0  0  0  0  0  0  0  0  0  0
   -2.7835   -1.6204    0.0000 C   0  0  0  0  0  0  0  0  0  0  0  0
   -0.0231   -0.6085    0.0000 C   0  0  0  0  0  0  0  0  0  0  0  0
    1.8650   -2.1854    0.0000 C   0  0  0  0  0  0  0  0  0  0  0  0
    0.7182   -3.1522    0.0000 C   0  0  0  0  0  0  0  0  0  0  0  0
    4.1747   -1.3387    0.0000 C   0  0  0  0  0  0  0  0  0  0  0  0
    5.3260   -2.3002    0.0000 C   0  0  0  0  0  0  0  0  0  0  0  0
    7.1850   -1.6187    0.0000 O   0  0  0  0  0  0  0  0  0  0  0  0
    8.3363   -2.5803    0.0000 C   0  0  0  0  0  0  0  0  0  0  0  0
    9.0813   -1.2899    0.0000 C   0  0  0  0  0  0  0  0  0  0  0  0
   10.6045   -1.2917    0.0000 C   0  0  0  0  0  0  0  0  0  0  0  0
   11.3503   -2.5999    0.0000 C   0  0  0  0  0  0  0  0  0  0  0  0
   10.6053   -3.8903    0.0000 C   0  0  0  0  0  0  0  0  0  0  0  0
   10.3445   -5.3674    0.0000 C   0  0  0  0  0  0  0  0  0  0  0  0
   11.4934   -6.3319    0.0000 O   0  0  0  0  0  0  0  0  0  0  0  0
    9.1045   -3.8898    0.0000 O   0  0  0  0  0  0  0  0  0  0  0  0
   12.4976   -3.5662    0.0000 O   0  0  0  0  0  0  0  0  0  0  0  0
   12.9195   -0.4597    0.0000 O   0  0  0  0  0  0  0  0  0  0  0  0
    9.5104    1.1324    0.0000 O   0  0  0  0  0  0  0  0  0  0  0  0
   10.9204    1.6443    0.0000 C   0  0  0  0  0  0  0  0  0  0  0  0
   10.1794    2.9370    0.0000 C   0  0  0  0  0  0  0  0  0  0  0  0
   10.9466    4.2528    0.0000 C   0  0  0  0  0  0  0  0  0  0  0  0
   12.4524    4.2399    0.0000 C   0  0  0  0  0  0  0  0  0  0  0  0
   13.1934    2.9473    0.0000 C   0  0  0  0  0  0  0  0  0  0  0  0
   14.3393    1.9793    0.0000 C   0  0  0  0  0  0  0  0  0  0  0  0
   15.7505    2.4876    0.0000 O   0  0  0  0  0  0  0  0  0  0  0  0
   12.4385    1.6501    0.0000 O   0  0  0  0  0  0  0  0  0  0  0  0
   13.8644    4.7460    0.0000 O   0  0  0  0  0  0  0  0  0  0  0  0
   11.2176    5.7281    0.0000 O   0  0  0  0  0  0  0  0  0  0  0  0
    9.0340    3.9056    0.0000 O   0  0  0  0  0  0  0  0  0  0  0  0
  1  2  1  0
  2  3  1  0
  2  4  2  0
  4  5  1  0
  5  6  1  0
  6  7  1  0
  7  8  1  0
  7  9  1  0
  9 10  1  0
 10 11  1  0
 11 12  1  0
 12 13  1  0
 13 14  1  0
 14 15  1  0
 15 16  1  0
 16 17  1  0
 17 18  1  0
 16 19  1  0
 12 19  1  0
 15 20  1  0
 14 21  1  0
 13 22  1  0
 22 23  1  0
 23 24  1  0
 24 25  1  0
 25 26  1  0
 26 27  1  0
 27 28  1  0
 28 29  1  0
 27 30  1  0
 23 30  1  0
 26 31  1  0
 25 32  1  0
 24 33  1  0
M  END
>  <cdk:Title>  (24) 
Citronellyl-beta-sophoroside

>  <1A2>  (24) 
N

>  <2A6>  (24) 
N

>  <2B6>  (24) 
N

>  <2C8>  (24) 
N

>  <2C9>  (24) 
N

>  <2C19>  (24) 
N

>  <2D6>  (24) 
N

>  <2E1>  (24) 
N

>  <3A4>  (24) 
N

>  <Citation>  (24) 
Nucleic Acids Res. 2018. Jan 4;46(D1):D608-17. PMID:29140435
Nucleic Acids Res. 2018 Jan 4;46(D1):D1074-D1082. PMID:29126136
Nucleic Acids Res., 45:D380-388 (2017).  PMID:27924025
Nucleic Acids Res. 2016 Jan 4;44(D1):D1202-13. PMID:26400175

>  <ROMol>  (24) 
<rdkit.Chem.rdchem.Mol object at 0x7c29060d6730>

>  <Drug_like>  (24) 
True

$$$$
Blepharin
     RDKit          2D

 23 25  0  0  0  0  0  0  0  0999 V2000
    2.1183   -0.0406    0.0000 O   0  0  0  0  0  0  0  0  0  0  0  0
    3.0963   -1.1780    0.0000 C   0  0  0  0  0  0  0  0  0  0  0  0
    2.6002   -2.5945    0.0000 N   0  0  0  0  0  0  0  0  0  0  0  0
    3.5763   -3.7231    0.0000 C   0  0  0  0  0  0  0  0  0  0  0  0
    3.0746   -5.1101    0.0000 C   0  0  0  0  0  0  0  0  0  0  0  0
    4.0526   -6.2486    0.0000 C   0  0  0  0  0  0  0  0  0  0  0  0
    5.5364   -5.9688    0.0000 C   0  0  0  0  0  0  0  0  0  0  0  0
    6.0030   -4.5579    0.0000 C   0  0  0  0  0  0  0  0  0  0  0  0
    5.0601   -3.4433    0.0000 C   0  0  0  0  0  0  0  0  0  0  0  0
    5.5286   -2.0422    0.0000 O   0  0  0  0  0  0  0  0  0  0  0  0
    4.5801   -0.8982    0.0000 C   0  0  0  0  0  0  0  0  0  0  0  0
    4.0587    0.5083    0.0000 O   0  0  0  0  0  0  0  0  0  0  0  0
    5.3224    2.0326    0.0000 C   0  0  0  0  0  0  0  0  0  0  0  0
    6.6291    2.8055    0.0000 O   0  0  0  0  0  0  0  0  0  0  0  0
    6.6242    4.3063    0.0000 C   0  0  0  0  0  0  0  0  0  0  0  0
    8.1023    4.0509    0.0000 C   0  0  0  0  0  0  0  0  0  0  0  0
    9.0625    5.2033    0.0000 O   0  0  0  0  0  0  0  0  0  0  0  0
    5.3311    5.0466    0.0000 C   0  0  0  0  0  0  0  0  0  0  0  0
    4.0256    4.2961    0.0000 C   0  0  0  0  0  0  0  0  0  0  0  0
    4.0293    2.7729    0.0000 C   0  0  0  0  0  0  0  0  0  0  0  0
    2.5514    3.0292    0.0000 O   0  0  0  0  0  0  0  0  0  0  0  0
    3.5131    5.7058    0.0000 O   0  0  0  0  0  0  0  0  0  0  0  0
    6.2932    6.1975    0.0000 O   0  0  0  0  0  0  0  0  0  0  0  0
  1  2  2  0
  2  3  1  0
  3  4  1  0
  4  5  2  0
  5  6  1  0
  6  7  2  0
  7  8  1  0
  8  9  2  0
  4  9  1  0
  9 10  1  0
 10 11  1  0
  2 11  1  0
 11 12  1  0
 12 13  1  0
 13 14  1  0
 14 15  1  0
 15 16  1  0
 16 17  1  0
 15 18  1  0
 18 19  1  0
 19 20  1  0
 13 20  1  0
 20 21  1  0
 19 22  1  0
 18 23  1  0
M  END
>  <cdk:Title>  (25) 
Blepharin

>  <1A2>  (25) 
N

>  <2A6>  (25) 
N

>  <2B6>  (25) 
N

>  <2C8>  (25) 
N

>  <2C9>  (25) 
N

>  <2C19>  (25) 
N

>  <2D6>  (25) 
N

>  <2E1>  (25) 
N

>  <3A4>  (25) 
N

>  <Citation>  (25) 
Nucleic Acids Res. 2018. Jan 4;46(D1):D608-17. PMID:29140435
Nucleic Acids Res. 2018 Jan 4;46(D1):D1074-D1082. PMID:29126136
Nucleic Acids Res., 45:D380-388 (2017).  PMID:27924025
Nucleic Acids Res. 2016 Jan 4;44(D1):D1202-13. PMID:26400175

>  <ROMol>  (25) 
<rdkit.Chem.rdchem.Mol object at 0x7c29060d67a0>

>  <Drug_like>  (25) 
True

$$$$
(?)-litcubinine
     RDKit          2D

 23 26  0  0  0  0  0  0  0  0999 V2000
   -0.2817   -1.2965    0.0000 C   0  0  0  0  0  0  0  0  0  0  0  0
   -0.5890    1.6273    0.0000 N   0  0  0  0  0  0  0  0  0  0  0  0
   -1.8881    0.8773    0.0000 C   0  0  0  0  0  0  0  0  0  0  0  0
   -3.1871    1.6273    0.0000 C   0  0  0  0  0  0  0  0  0  0  0  0
   -3.1871    3.1273    0.0000 C   0  0  0  0  0  0  0  0  0  0  0  0
   -4.4861    3.8773    0.0000 C   0  0  0  0  0  0  0  0  0  0  0  0
   -4.4861    5.3773    0.0000 C   0  0  0  0  0  0  0  0  0  0  0  0
   -3.1871    6.1273    0.0000 C   0  0  0  0  0  0  0  0  0  0  0  0
   -1.8881    5.3773    0.0000 C   0  0  0  0  0  0  0  0  0  0  0  0
   -1.8881    3.8773    0.0000 C   0  0  0  0  0  0  0  0  0  0  0  0
   -0.5890    3.1273    0.0000 C   0  0  0  0  0  0  0  0  0  0  0  0
    0.8376    3.5909    0.0000 C   0  0  0  0  0  0  0  0  0  0  0  0
    1.7192    2.3773    0.0000 C   0  0  0  0  0  0  0  0  0  0  0  0
    3.2110    2.2206    0.0000 C   0  0  0  0  0  0  0  0  0  0  0  0
    3.8211    0.8502    0.0000 C   0  0  0  0  0  0  0  0  0  0  0  0
    2.9394   -0.3633    0.0000 C   0  0  0  0  0  0  0  0  0  0  0  0
    1.4477   -0.2065    0.0000 C   0  0  0  0  0  0  0  0  0  0  0  0
    0.8376    1.1638    0.0000 C   0  0  0  0  0  0  0  0  0  0  0  0
    3.5496   -1.7336    0.0000 O   0  0  0  0  0  0  0  0  0  0  0  0
    5.3129    0.6934    0.0000 O   0  0  0  0  0  0  0  0  0  0  0  0
   -3.1871    7.6273    0.0000 O   0  0  0  0  0  0  0  0  0  0  0  0
   -5.7852    6.1273    0.0000 O   0  0  0  0  0  0  0  0  0  0  0  0
   -5.7852    7.6273    0.0000 C   0  0  0  0  0  0  0  0  0  0  0  0
  2  1  1  6
  2  3  1  0
  3  4  1  0
  4  5  1  0
  5  6  2  0
  6  7  1  0
  7  8  2  0
  8  9  1  0
  9 10  2  0
  5 10  1  0
 10 11  1  0
  2 11  1  0
 11 12  1  0
 12 13  1  0
 13 14  2  0
 14 15  1  0
 15 16  2  0
 16 17  1  0
 17 18  2  0
 13 18  1  0
  2 18  1  0
 16 19  1  0
 15 20  1  0
  8 21  1  0
  7 22  1  0
 22 23  1  0
M  CHG  1   2   1
M  END
>  <cdk:Title>  (26) 
(?)-litcubinine

>  <1A2>  (26) 
N

>  <2A6>  (26) 
N

>  <2B6>  (26) 
N

>  <2C8>  (26) 
N

>  <2C9>  (26) 
N

>  <2C19>  (26) 
N

>  <2D6>  (26) 
N

>  <2E1>  (26) 
N

>  <3A4>  (26) 
N

>  <Citation>  (26) 
Nucleic Acids Res. 2018. Jan 4;46(D1):D608-17. PMID:29140435
Nucleic Acids Res. 2018 Jan 4;46(D1):D1074-D1082. PMID:29126136
Nucleic Acids Res., 45:D380-388 (2017).  PMID:27924025
Nucleic Acids Res. 2016 Jan 4;44(D1):D1202-13. PMID:26400175

>  <ROMol>  (26) 
<rdkit.Chem.rdchem.Mol object at 0x7c29060d6810>

>  <Drug_like>  (26) 
True

$$$$
2-[(8S_9R)-9-[(2-Methylbut-2-enoyl)oxy]-2-oxo-2H_8H_9H-furo[2_3-H]chromen-8-yl]p
     RDKit          2D

 31 33  0  0  0  0  0  0  0  0999 V2000
    1.2034    6.9027    0.0000 C   0  0  0  0  0  0  0  0  0  0  0  0
   -0.2885    6.7472    0.0000 C   0  0  0  0  0  0  0  0  0  0  0  0
   -0.8998    5.3775    0.0000 C   0  0  0  0  0  0  0  0  0  0  0  0
   -2.3917    5.2220    0.0000 C   0  0  0  0  0  0  0  0  0  0  0  0
   -0.0192    4.1632    0.0000 C   0  0  0  0  0  0  0  0  0  0  0  0
    1.4727    4.3186    0.0000 O   0  0  0  0  0  0  0  0  0  0  0  0
   -0.8262    2.3551    0.0000 O   0  0  0  0  0  0  0  0  0  0  0  0
    0.8998   -0.0250    0.0000 C   0  0  0  0  0  0  0  0  0  0  0  0
   -0.3940   -0.7692    0.0000 C   0  0  0  0  0  0  0  0  0  0  0  0
   -0.0841   -2.2377    0.0000 C   0  0  0  0  0  0  0  0  0  0  0  0
   -1.2006   -3.2394    0.0000 C   0  0  0  0  0  0  0  0  0  0  0  0
   -2.6270   -2.7726    0.0000 C   0  0  0  0  0  0  0  0  0  0  0  0
   -2.9369   -1.3041    0.0000 C   0  0  0  0  0  0  0  0  0  0  0  0
   -4.3633   -0.8373    0.0000 C   0  0  0  0  0  0  0  0  0  0  0  0
   -4.6732    0.6312    0.0000 C   0  0  0  0  0  0  0  0  0  0  0  0
   -3.5567    1.6329    0.0000 C   0  0  0  0  0  0  0  0  0  0  0  0
   -3.8657    3.1007    0.0000 O   0  0  0  0  0  0  0  0  0  0  0  0
   -2.1303    1.1661    0.0000 O   0  0  0  0  0  0  0  0  0  0  0  0
   -1.8204   -0.3024    0.0000 C   0  0  0  0  0  0  0  0  0  0  0  0
    1.4015   -2.3962    0.0000 O   0  0  0  0  0  0  0  0  0  0  0  0
    2.0139   -1.0272    0.0000 C   0  0  0  0  0  0  0  0  0  0  0  0
    3.7426    1.3508    0.0000 C   0  0  0  0  0  0  0  0  0  0  0  0
    1.5319    2.4298    0.0000 C   0  0  0  0  0  0  0  0  0  0  0  0
    5.4714    3.7288    0.0000 C   0  0  0  0  0  0  0  0  0  0  0  0
    5.2344    1.1936    0.0000 O   0  0  0  0  0  0  0  0  0  0  0  0
    5.8441   -0.1769    0.0000 C   0  0  0  0  0  0  0  0  0  0  0  0
    7.3358   -0.3341    0.0000 C   0  0  0  0  0  0  0  0  0  0  0  0
    7.9455   -1.7046    0.0000 C   0  0  0  0  0  0  0  0  0  0  0  0
    7.0635   -2.9179    0.0000 C   0  0  0  0  0  0  0  0  0  0  0  0
    8.2179    0.8792    0.0000 C   0  0  0  0  0  0  0  0  0  0  0  0
    4.9621   -1.3902    0.0000 O   0  0  0  0  0  0  0  0  0  0  0  0
  1  2  1  0
  2  3  2  0
  3  4  1  0
  3  5  1  0
  5  6  2  0
  5  7  1  0
  7  8  1  0
  8  9  1  0
  9 10  2  0
 10 11  1  0
 11 12  2  0
 12 13  1  0
 13 14  1  0
 14 15  2  0
 15 16  1  0
 16 17  2  0
 16 18  1  0
 18 19  1  0
 13 19  2  0
  9 19  1  0
 10 20  1  0
 20 21  1  0
  8 21  1  0
 21 22  1  0
 22 23  1  0
 22 24  1  0
 22 25  1  0
 25 26  1  0
 26 27  1  0
 27 28  2  0
 28 29  1  0
 27 30  1  0
 26 31  2  0
M  END
>  <cdk:Title>  (27) 
2-[(8S_9R)-9-[(2-Methylbut-2-enoyl)oxy]-2-oxo-2H_8H_9H-furo[2_3-H]chromen-8-yl]propan-2-yl 2-methylbut-2-enoate

>  <1A2>  (27) 
N

>  <2A6>  (27) 
N

>  <2B6>  (27) 
N

>  <2C8>  (27) 
N

>  <2C9>  (27) 
N

>  <2C19>  (27) 
N

>  <2D6>  (27) 
N

>  <2E1>  (27) 
N

>  <3A4>  (27) 
N

>  <Citation>  (27) 
Nucleic Acids Res. 2018. Jan 4;46(D1):D608-17. PMID:29140435
Nucleic Acids Res. 2018 Jan 4;46(D1):D1074-D1082. PMID:29126136
Nucleic Acids Res., 45:D380-388 (2017).  PMID:27924025
Nucleic Acids Res. 2016 Jan 4;44(D1):D1202-13. PMID:26400175

>  <ROMol>  (27) 
<rdkit.Chem.rdchem.Mol object at 0x7c29060d6960>

>  <Drug_like>  (27) 
True

$$$$
Gravacridonediol methyl ether
     RDKit          2D

 26 29  0  0  0  0  0  0  0  0999 V2000
   -1.7454   11.4685    0.0000 C   0  0  0  0  0  0  0  0  0  0  0  0
   -0.2537   11.3117    0.0000 C   0  0  0  0  0  0  0  0  0  0  0  0
    0.6280   10.0982    0.0000 C   0  0  0  0  0  0  0  0  0  0  0  0
    2.1198   10.2550    0.0000 C   0  0  0  0  0  0  0  0  0  0  0  0
    2.7299   11.6253    0.0000 C   0  0  0  0  0  0  0  0  0  0  0  0
    1.8482   12.8389    0.0000 C   0  0  0  0  0  0  0  0  0  0  0  0
    0.3565   12.6821    0.0000 C   0  0  0  0  0  0  0  0  0  0  0  0
   -0.7583   13.6858    0.0000 O   0  0  0  0  0  0  0  0  0  0  0  0
   -2.0573   12.9358    0.0000 C   0  0  0  0  0  0  0  0  0  0  0  0
   -4.8534   12.0273    0.0000 C   0  0  0  0  0  0  0  0  0  0  0  0
   -5.2651   10.0905    0.0000 C   0  0  0  0  0  0  0  0  0  0  0  0
   -6.6917    9.6270    0.0000 O   0  0  0  0  0  0  0  0  0  0  0  0
   -7.0035    8.1598    0.0000 C   0  0  0  0  0  0  0  0  0  0  0  0
   -5.1958   14.4633    0.0000 C   0  0  0  0  0  0  0  0  0  0  0  0
   -6.3525   12.0796    0.0000 O   0  0  0  0  0  0  0  0  0  0  0  0
    4.2217   11.7821    0.0000 O   0  0  0  0  0  0  0  0  0  0  0  0
    3.0015    9.0415    0.0000 C   0  0  0  0  0  0  0  0  0  0  0  0
    4.4933    9.1983    0.0000 O   0  0  0  0  0  0  0  0  0  0  0  0
    2.3914    7.6712    0.0000 C   0  0  0  0  0  0  0  0  0  0  0  0
    3.2731    6.4576    0.0000 C   0  0  0  0  0  0  0  0  0  0  0  0
    2.6630    5.0873    0.0000 C   0  0  0  0  0  0  0  0  0  0  0  0
    1.1712    4.9305    0.0000 C   0  0  0  0  0  0  0  0  0  0  0  0
    0.2895    6.1441    0.0000 C   0  0  0  0  0  0  0  0  0  0  0  0
    0.8996    7.5144    0.0000 C   0  0  0  0  0  0  0  0  0  0  0  0
    0.0179    8.7279    0.0000 N   0  0  0  0  0  0  0  0  0  0  0  0
   -1.9512    8.5209    0.0000 C   0  0  0  0  0  0  0  0  0  0  0  0
  1  2  1  0
  2  3  2  0
  3  4  1  0
  4  5  2  0
  5  6  1  0
  6  7  2  0
  2  7  1  0
  7  8  1  0
  8  9  1  0
  1  9  1  0
  9 10  1  0
 10 11  1  0
 11 12  1  0
 12 13  1  0
 10 14  1  6
 10 15  1  0
  5 16  1  0
  4 17  1  0
 17 18  2  0
 17 19  1  0
 19 20  2  0
 20 21  1  0
 21 22  2  0
 22 23  1  0
 23 24  2  0
 19 24  1  0
 24 25  1  0
  3 25  1  0
 25 26  1  0
M  END
>  <cdk:Title>  (28) 
Gravacridonediol methyl ether

>  <1A2>  (28) 
N

>  <2A6>  (28) 
N

>  <2B6>  (28) 
N

>  <2C8>  (28) 
N

>  <2C9>  (28) 
N

>  <2C19>  (28) 
N

>  <2D6>  (28) 
N

>  <2E1>  (28) 
N

>  <3A4>  (28) 
N

>  <Citation>  (28) 
Nucleic Acids Res. 2018. Jan 4;46(D1):D608-17. PMID:29140435
Nucleic Acids Res. 2018 Jan 4;46(D1):D1074-D1082. PMID:29126136
Nucleic Acids Res., 45:D380-388 (2017).  PMID:27924025
Nucleic Acids Res. 2016 Jan 4;44(D1):D1202-13. PMID:26400175

>  <ROMol>  (28) 
<rdkit.Chem.rdchem.Mol object at 0x7c29060d69d0>

>  <Drug_like>  (28) 
True

$$$$
6-Monoacetylmorphine
     RDKit          2D

 24 28  0  0  0  0  0  0  0  0999 V2000
   -6.3942   -4.5208    0.0000 C   0  0  0  0  0  0  0  0  0  0  0  0
   -4.9170   -4.7811    0.0000 C   0  0  0  0  0  0  0  0  0  0  0  0
   -4.4038   -6.1906    0.0000 O   0  0  0  0  0  0  0  0  0  0  0  0
   -3.9529   -3.6319    0.0000 O   0  0  0  0  0  0  0  0  0  0  0  0
   -2.0030   -3.9756    0.0000 C   0  0  0  0  0  0  0  0  0  0  0  0
   -0.7030   -4.7256    0.0000 C   0  0  0  0  0  0  0  0  0  0  0  0
    0.5970   -3.9756    0.0000 C   0  0  0  0  0  0  0  0  0  0  0  0
    0.5970   -2.4756    0.0000 C   0  0  0  0  0  0  0  0  0  0  0  0
    1.8870   -1.7056    0.0000 C   0  0  0  0  0  0  0  0  0  0  0  0
    1.8770   -0.2056    0.0000 C   0  0  0  0  0  0  0  0  0  0  0  0
    0.5670    0.5444    0.0000 C   0  0  0  0  0  0  0  0  0  0  0  0
    0.5470    2.0444    0.0000 C   0  0  0  0  0  0  0  0  0  0  0  0
   -0.7530    2.7844    0.0000 C   0  0  0  0  0  0  0  0  0  0  0  0
   -2.0430    2.0144    0.0000 C   0  0  0  0  0  0  0  0  0  0  0  0
   -2.0330    0.5144    0.0000 C   0  0  0  0  0  0  0  0  0  0  0  0
   -0.7230   -0.2256    0.0000 C   0  0  0  0  0  0  0  0  0  0  0  0
   -0.7030   -1.7256    0.0000 C   0  0  0  0  0  0  0  0  0  0  0  0
    0.5670   -0.9456    0.0000 C   0  0  0  0  0  0  0  0  0  0  0  0
    3.1770   -0.9356    0.0000 C   0  0  0  0  0  0  0  0  0  0  0  0
    3.2070   -2.4456    0.0000 N   0  0  0  0  0  0  0  0  0  0  0  0
    3.8304   -3.8099    0.0000 C   0  0  0  0  0  0  0  0  0  0  0  0
   -2.0030   -2.4756    0.0000 C   0  0  0  0  0  0  0  0  0  0  0  0
   -3.5130   -0.8856    0.0000 O   0  0  0  0  0  0  0  0  0  0  0  0
   -3.3499    2.7506    0.0000 O   0  0  0  0  0  0  0  0  0  0  0  0
  1  2  1  0
  2  3  2  0
  2  4  1  0
  4  5  1  0
  5  6  1  0
  6  7  2  0
  7  8  1  0
  8  9  1  0
  9 10  1  0
 10 11  1  0
 11 12  2  0
 12 13  1  0
 13 14  2  0
 14 15  1  0
 15 16  2  0
 11 16  1  0
 17 16  1  0
  8 17  1  0
 17 18  1  6
 18 19  1  0
 19 20  1  0
  9 20  1  0
 20 21  1  0
 17 22  1  0
  5 22  1  0
 22 23  1  0
 15 23  1  0
 14 24  1  0
M  END
>  <cdk:Title>  (29) 
6-Monoacetylmorphine

>  <1A2>  (29) 
N

>  <2A6>  (29) 
N

>  <2B6>  (29) 
N

>  <2C8>  (29) 
N

>  <2C9>  (29) 
N

>  <2C19>  (29) 
N

>  <2D6>  (29) 
N

>  <2E1>  (29) 
N

>  <3A4>  (29) 
N

>  <Citation>  (29) 
Nucleic Acids Res. 2018. Jan 4;46(D1):D608-17. PMID:29140435
Nucleic Acids Res. 2018 Jan 4;46(D1):D1074-D1082. PMID:29126136
Nucleic Acids Res., 45:D380-388 (2017).  PMID:27924025
Nucleic Acids Res. 2016 Jan 4;44(D1):D1202-13. PMID:26400175

>  <ROMol>  (29) 
<rdkit.Chem.rdchem.Mol object at 0x7c29060d6ab0>

>  <Drug_like>  (29) 
True

$$$$
(2Z)-6-[(2S_5R_7R_11S_14S_15S)-5-Hydroxy-2_6_6_11_15-pentamethyltetracyclo[8.7.0
     RDKit          2D

 34 37  0  0  0  0  0  0  0  0999 V2000
   -5.4768   -2.0652    0.0000 C   0  0  0  0  0  0  0  0  0  0  0  0
   -5.4768   -3.5952    0.0000 C   0  0  0  0  0  0  0  0  0  0  0  0
   -4.1668   -4.3352    0.0000 C   0  0  0  0  0  0  0  0  0  0  0  0
   -2.8868   -3.5952    0.0000 C   0  0  0  0  0  0  0  0  0  0  0  0
   -2.8868   -2.0652    0.0000 C   0  0  0  0  0  0  0  0  0  0  0  0
   -4.1668   -1.3452    0.0000 C   0  0  0  0  0  0  0  0  0  0  0  0
   -1.5868   -1.3452    0.0000 C   0  0  0  0  0  0  0  0  0  0  0  0
   -0.2568   -2.0652    0.0000 C   0  0  0  0  0  0  0  0  0  0  0  0
   -0.2568   -3.5952    0.0000 C   0  0  0  0  0  0  0  0  0  0  0  0
   -1.5868   -4.3352    0.0000 C   0  0  0  0  0  0  0  0  0  0  0  0
    1.0132   -1.3452    0.0000 C   0  0  0  0  0  0  0  0  0  0  0  0
    1.0132    0.1248    0.0000 C   0  0  0  0  0  0  0  0  0  0  0  0
   -0.2568    0.8948    0.0000 C   0  0  0  0  0  0  0  0  0  0  0  0
   -1.5868    0.1248    0.0000 C   0  0  0  0  0  0  0  0  0  0  0  0
    2.4332    0.5948    0.0000 C   0  0  0  0  0  0  0  0  0  0  0  0
    3.2832   -0.6252    0.0000 C   0  0  0  0  0  0  0  0  0  0  0  0
    2.4332   -1.8152    0.0000 C   0  0  0  0  0  0  0  0  0  0  0  0
    4.9959    2.0358    0.0000 C   0  0  0  0  0  0  0  0  0  0  0  0
    5.4928    0.6205    0.0000 C   0  0  0  0  0  0  0  0  0  0  0  0
    6.9670    0.3432    0.0000 O   0  0  0  0  0  0  0  0  0  0  0  0
    5.0238    4.4956    0.0000 C   0  0  0  0  0  0  0  0  0  0  0  0
    6.3313    5.2308    0.0000 C   0  0  0  0  0  0  0  0  0  0  0  0
    6.3484    6.7307    0.0000 C   0  0  0  0  0  0  0  0  0  0  0  0
    7.6558    7.4659    0.0000 C   0  0  0  0  0  0  0  0  0  0  0  0
    7.6729    8.9658    0.0000 C   0  0  0  0  0  0  0  0  0  0  0  0
    8.9463    6.7011    0.0000 C   0  0  0  0  0  0  0  0  0  0  0  0
   10.2538    7.4363    0.0000 O   0  0  0  0  0  0  0  0  0  0  0  0
    8.9292    5.2012    0.0000 O   0  0  0  0  0  0  0  0  0  0  0  0
    1.3438    3.0462    0.0000 C   0  0  0  0  0  0  0  0  0  0  0  0
    1.3010   -4.2711    0.0000 C   0  0  0  0  0  0  0  0  0  0  0  0
   -2.8771    0.8748    0.0000 C   0  0  0  0  0  0  0  0  0  0  0  0
   -5.7359   -6.2298    0.0000 C   0  0  0  0  0  0  0  0  0  0  0  0
   -3.3173   -6.6439    0.0000 C   0  0  0  0  0  0  0  0  0  0  0  0
   -6.9548   -3.3393    0.0000 O   0  0  0  0  0  0  0  0  0  0  0  0
  1  2  1  0
  2  3  1  0
  3  4  1  0
  4  5  1  0
  5  6  1  0
  1  6  1  0
  5  7  1  0
  7  8  2  0
  8  9  1  0
  9 10  1  0
  4 10  1  0
  8 11  1  0
 11 12  1  0
 12 13  1  0
 13 14  1  0
  7 14  1  0
 12 15  1  0
 15 16  1  0
 16 17  1  0
 11 17  1  0
 15 18  1  0
 18 19  1  0
 19 20  2  0
 18 21  1  0
 21 22  1  0
 22 23  1  0
 23 24  2  0
 24 25  1  0
 24 26  1  0
 26 27  1  0
 26 28  2  0
 12 29  1  6
 11 30  1  6
  5 31  1  1
  3 32  1  0
  3 33  1  0
  2 34  1  0
M  END
>  <cdk:Title>  (30) 
(2Z)-6-[(2S_5R_7R_11S_14S_15S)-5-Hydroxy-2_6_6_11_15-pentamethyltetracyclo[8.7.0.0??_???.0????_?????]heptadec-1(10)-en-14-yl]-2-methyl-7-oxohept-2-enoic acid

>  <1A2>  (30) 
N

>  <2A6>  (30) 
N

>  <2B6>  (30) 
N

>  <2C8>  (30) 
N

>  <2C9>  (30) 
N

>  <2C19>  (30) 
N

>  <2D6>  (30) 
N

>  <2E1>  (30) 
N

>  <3A4>  (30) 
N

>  <Citation>  (30) 
Nucleic Acids Res. 2018. Jan 4;46(D1):D608-17. PMID:29140435
Nucleic Acids Res. 2018 Jan 4;46(D1):D1074-D1082. PMID:29126136
Nucleic Acids Res., 45:D380-388 (2017).  PMID:27924025
Nucleic Acids Res. 2016 Jan 4;44(D1):D1202-13. PMID:26400175

>  <ROMol>  (30) 
<rdkit.Chem.rdchem.Mol object at 0x7c29060d6b20>

>  <Drug_like>  (30) 
True

$$$$
6-Hydroxy-2_6-dimethylocta-2_7-dien-4-one
     RDKit          2D

 12 11  0  0  0  0  0  0  0  0999 V2000
    9.4018   -2.6177    0.0000 C   0  0  0  0  0  0  0  0  0  0  0  0
    9.4018   -1.1177    0.0000 C   0  0  0  0  0  0  0  0  0  0  0  0
    8.1028   -0.3677    0.0000 C   0  0  0  0  0  0  0  0  0  0  0  0
    9.0669    0.7814    0.0000 C   0  0  0  0  0  0  0  0  0  0  0  0
    6.8037   -1.1177    0.0000 C   0  0  0  0  0  0  0  0  0  0  0  0
    5.5047   -0.3677    0.0000 C   0  0  0  0  0  0  0  0  0  0  0  0
    4.2057   -1.1177    0.0000 C   0  0  0  0  0  0  0  0  0  0  0  0
    2.9066   -0.3677    0.0000 C   0  0  0  0  0  0  0  0  0  0  0  0
    1.6076   -1.1177    0.0000 C   0  0  0  0  0  0  0  0  0  0  0  0
    2.9066    1.1323    0.0000 C   0  0  0  0  0  0  0  0  0  0  0  0
    5.5047    1.1323    0.0000 O   0  0  0  0  0  0  0  0  0  0  0  0
    6.8300    1.1491    0.0000 O   0  0  0  0  0  0  0  0  0  0  0  0
  1  2  2  0
  2  3  1  0
  3  4  1  6
  3  5  1  0
  5  6  1  0
  6  7  1  0
  7  8  2  0
  8  9  1  0
  8 10  1  0
  6 11  2  0
  3 12  1  0
M  END
>  <cdk:Title>  (31) 
6-Hydroxy-2_6-dimethylocta-2_7-dien-4-one

>  <1A2>  (31) 
N

>  <2A6>  (31) 
N

>  <2B6>  (31) 
N

>  <2C8>  (31) 
N

>  <2C9>  (31) 
N

>  <2C19>  (31) 
N

>  <2D6>  (31) 
N

>  <2E1>  (31) 
N

>  <3A4>  (31) 
N

>  <Citation>  (31) 
Nucleic Acids Res. 2018. Jan 4;46(D1):D608-17. PMID:29140435
Nucleic Acids Res. 2018 Jan 4;46(D1):D1074-D1082. PMID:29126136
Nucleic Acids Res., 45:D380-388 (2017).  PMID:27924025
Nucleic Acids Res. 2016 Jan 4;44(D1):D1202-13. PMID:26400175

>  <ROMol>  (31) 
<rdkit.Chem.rdchem.Mol object at 0x7c29060d6c00>

>  <Drug_like>  (31) 
True

$$$$
[(4S_5R_9S_10R_13R_14S)-5-Formyl-14-hydroxy-5_9-dimethyltetracyclo[11.2.1.0??_??
     RDKit          2D

 26 29  0  0  0  0  0  0  0  0999 V2000
   10.3569   -0.4741    0.0000 C   0  0  0  0  0  0  0  0  0  0  0  0
    9.0557   -1.2202    0.0000 C   0  0  0  0  0  0  0  0  0  0  0  0
    9.0513   -2.7202    0.0000 O   0  0  0  0  0  0  0  0  0  0  0  0
    7.7589   -0.4664    0.0000 O   0  0  0  0  0  0  0  0  0  0  0  0
    6.4576   -1.2126    0.0000 C   0  0  0  0  0  0  0  0  0  0  0  0
    3.9158    0.2649    0.0000 C   0  0  0  0  0  0  0  0  0  0  0  0
    3.4658   -1.1651    0.0000 C   0  0  0  0  0  0  0  0  0  0  0  0
    2.0758   -1.7151    0.0000 C   0  0  0  0  0  0  0  0  0  0  0  0
    2.0758   -3.2151    0.0000 C   0  0  0  0  0  0  0  0  0  0  0  0
    0.7758   -3.9651    0.0000 C   0  0  0  0  0  0  0  0  0  0  0  0
   -0.5242   -3.2151    0.0000 C   0  0  0  0  0  0  0  0  0  0  0  0
   -1.8242   -3.9651    0.0000 C   0  0  0  0  0  0  0  0  0  0  0  0
   -3.4052   -5.8497    0.0000 C   0  0  0  0  0  0  0  0  0  0  0  0
   -3.1242   -3.2151    0.0000 C   0  0  0  0  0  0  0  0  0  0  0  0
   -3.1242   -1.7151    0.0000 C   0  0  0  0  0  0  0  0  0  0  0  0
   -1.8242   -0.9651    0.0000 C   0  0  0  0  0  0  0  0  0  0  0  0
   -0.5242   -1.7151    0.0000 C   0  0  0  0  0  0  0  0  0  0  0  0
   -0.0136    1.1802    0.0000 C   0  0  0  0  0  0  0  0  0  0  0  0
    0.7758   -0.9651    0.0000 C   0  0  0  0  0  0  0  0  0  0  0  0
    0.5458    0.5149    0.0000 C   0  0  0  0  0  0  0  0  0  0  0  0
    1.5658    1.6149    0.0000 C   0  0  0  0  0  0  0  0  0  0  0  0
    3.0658    1.5049    0.0000 C   0  0  0  0  0  0  0  0  0  0  0  0
    1.8858    0.1149    0.0000 C   0  0  0  0  0  0  0  0  0  0  0  0
    0.0654   -6.2175    0.0000 C   0  0  0  0  0  0  0  0  0  0  0  0
   -0.4478   -7.6270    0.0000 O   0  0  0  0  0  0  0  0  0  0  0  0
    4.9363    1.3643    0.0000 O   0  0  0  0  0  0  0  0  0  0  0  0
  1  2  1  0
  2  3  2  0
  2  4  1  0
  4  5  1  0
  5  6  1  0
  6  7  1  0
  8  7  1  6
  8  9  1  0
  9 10  1  0
 10 11  1  0
 11 12  1  0
 12 13  1  1
 12 14  1  0
 14 15  1  0
 15 16  1  0
 16 17  1  0
 11 17  1  0
 17 18  1  6
 17 19  1  0
  8 19  1  0
 19 20  1  0
 20 21  1  0
 21 22  1  0
  6 22  1  0
 22 23  1  0
  8 23  1  0
 12 24  1  0
 24 25  2  0
  6 26  1  1
M  END
>  <cdk:Title>  (32) 
[(4S_5R_9S_10R_13R_14S)-5-Formyl-14-hydroxy-5_9-dimethyltetracyclo[11.2.1.0??_?????.0???_???]hexadecan-14-yl]methyl acetate

>  <1A2>  (32) 
N

>  <2A6>  (32) 
N

>  <2B6>  (32) 
N

>  <2C8>  (32) 
N

>  <2C9>  (32) 
N

>  <2C19>  (32) 
N

>  <2D6>  (32) 
N

>  <2E1>  (32) 
N

>  <3A4>  (32) 
N

>  <Citation>  (32) 
Nucleic Acids Res. 2018. Jan 4;46(D1):D608-17. PMID:29140435
Nucleic Acids Res. 2018 Jan 4;46(D1):D1074-D1082. PMID:29126136
Nucleic Acids Res., 45:D380-388 (2017).  PMID:27924025
Nucleic Acids Res. 2016 Jan 4;44(D1):D1202-13. PMID:26400175

>  <ROMol>  (32) 
<rdkit.Chem.rdchem.Mol object at 0x7c29060d6d50>

>  <Drug_like>  (32) 
True

$$$$
Physalin g
     RDKit          2D

 38 45  0  0  0  0  0  0  0  0999 V2000
   -0.6085    0.6090    0.0000 C   0  0  0  0  0  0  0  0  0  0  0  0
   -0.7205    2.1048    0.0000 C   0  0  0  0  0  0  0  0  0  0  0  0
   -1.2686    0.7085    0.0000 C   0  0  0  0  0  0  0  0  0  0  0  0
   -2.7518    0.4849    0.0000 C   0  0  0  0  0  0  0  0  0  0  0  0
    0.7795   -0.4933    0.0000 C   0  0  0  0  0  0  0  0  0  0  0  0
   -2.0427    0.3309    0.0000 C   0  0  0  0  0  0  0  0  0  0  0  0
    1.5295    0.8058    0.0000 C   0  0  0  0  0  0  0  0  0  0  0  0
    0.7795    2.1048    0.0000 C   0  0  0  0  0  0  0  0  0  0  0  0
    1.7147    3.2776    0.0000 C   0  0  0  0  0  0  0  0  0  0  0  0
    1.3809    4.7400    0.0000 C   0  0  0  0  0  0  0  0  0  0  0  0
    2.2824    4.3480    0.0000 C   0  0  0  0  0  0  0  0  0  0  0  0
    1.8188    5.7746    0.0000 C   0  0  0  0  0  0  0  0  0  0  0  0
    2.8225    6.8893    0.0000 C   0  0  0  0  0  0  0  0  0  0  0  0
    4.2898    6.5774    0.0000 C   0  0  0  0  0  0  0  0  0  0  0  0
    5.2935    7.6921    0.0000 C   0  0  0  0  0  0  0  0  0  0  0  0
    6.7607    7.3803    0.0000 C   0  0  0  0  0  0  0  0  0  0  0  0
    7.2242    5.9537    0.0000 C   0  0  0  0  0  0  0  0  0  0  0  0
    6.2205    4.8389    0.0000 C   0  0  0  0  0  0  0  0  0  0  0  0
    4.7533    5.1508    0.0000 C   0  0  0  0  0  0  0  0  0  0  0  0
    5.3651    3.2677    0.0000 C   0  0  0  0  0  0  0  0  0  0  0  0
    3.7496    4.0361    0.0000 C   0  0  0  0  0  0  0  0  0  0  0  0
    4.5665    2.7781    0.0000 C   0  0  0  0  0  0  0  0  0  0  0  0
    4.2547    1.3109    0.0000 C   0  0  0  0  0  0  0  0  0  0  0  0
    2.9967    0.4939    0.0000 C   0  0  0  0  0  0  0  0  0  0  0  0
    3.1535   -0.9979    0.0000 C   0  0  0  0  0  0  0  0  0  0  0  0
    4.4525   -1.7479    0.0000 O   0  0  0  0  0  0  0  0  0  0  0  0
    1.7831   -1.6080    0.0000 O   0  0  0  0  0  0  0  0  0  0  0  0
    5.6503   -0.7718    0.0000 O   0  0  0  0  0  0  0  0  0  0  0  0
    6.6840    3.4124    0.0000 O   0  0  0  0  0  0  0  0  0  0  0  0
    3.3844    8.2800    0.0000 O   0  0  0  0  0  0  0  0  0  0  0  0
    0.0295    5.3908    0.0000 O   0  0  0  0  0  0  0  0  0  0  0  0
   -1.3220    4.7400    0.0000 C   0  0  0  0  0  0  0  0  0  0  0  0
   -1.6558    3.2776    0.0000 C   0  0  0  0  0  0  0  0  0  0  0  0
   -3.1390    3.0540    0.0000 C   0  0  0  0  0  0  0  0  0  0  0  0
   -4.0743    4.2267    0.0000 O   0  0  0  0  0  0  0  0  0  0  0  0
   -3.6870    1.6577    0.0000 O   0  0  0  0  0  0  0  0  0  0  0  0
    2.9967    1.1176    0.0000 O   0  0  0  0  0  0  0  0  0  0  0  0
    3.1771    2.9438    0.0000 O   0  0  0  0  0  0  0  0  0  0  0  0
  2  1  1  1
  2  3  1  0
  3  4  1  0
  4  5  1  0
  5  6  1  6
  5  7  1  0
  7  8  1  0
  2  8  1  0
  8  9  1  0
  9 10  1  0
 10 11  1  0
 11 12  1  0
 12 13  1  0
 13 14  1  0
 14 15  2  0
 15 16  1  0
 16 17  2  0
 17 18  1  0
 18 19  1  0
 14 19  1  0
 19 20  1  6
 19 21  1  0
 11 21  1  0
 21 22  1  0
 22 23  1  0
 23 24  1  0
  7 24  1  0
 24 25  1  0
 25 26  2  0
 25 27  1  0
  5 27  1  0
 24 28  1  6
 18 29  2  0
 13 30  1  0
 10 31  1  6
 31 32  1  0
 32 33  1  0
  2 33  1  0
 33 34  1  0
 34 35  2  0
 34 36  1  0
  4 36  1  0
 10 37  1  0
  7 37  1  6
  9 38  2  0
M  END
>  <cdk:Title>  (33) 
Physalin g

>  <1A2>  (33) 
N

>  <2A6>  (33) 
N

>  <2B6>  (33) 
N

>  <2C8>  (33) 
N

>  <2C9>  (33) 
N

>  <2C19>  (33) 
N

>  <2D6>  (33) 
N

>  <2E1>  (33) 
N

>  <3A4>  (33) 
N

>  <Citation>  (33) 
Nucleic Acids Res. 2018. Jan 4;46(D1):D608-17. PMID:29140435
Nucleic Acids Res. 2018 Jan 4;46(D1):D1074-D1082. PMID:29126136
Nucleic Acids Res., 45:D380-388 (2017).  PMID:27924025
Nucleic Acids Res. 2016 Jan 4;44(D1):D1202-13. PMID:26400175

>  <ROMol>  (33) 
<rdkit.Chem.rdchem.Mol object at 0x7c29060d6dc0>

>  <Drug_like>  (33) 
True

$$$$
alpha-Santalol acetate
     RDKit          2D

 19 21  0  0  0  0  0  0  0  0999 V2000
   -2.4845    0.4475    0.0000 C   0  0  0  0  0  0  0  0  0  0  0  0
   -2.7154   -1.0346    0.0000 C   0  0  0  0  0  0  0  0  0  0  0  0
   -1.5473   -1.9757    0.0000 C   0  0  0  0  0  0  0  0  0  0  0  0
   -1.7782   -3.4578    0.0000 C   0  0  0  0  0  0  0  0  0  0  0  0
    0.5113   -5.3022    0.0000 C   0  0  0  0  0  0  0  0  0  0  0  0
    0.0587   -8.2071    0.0000 C   0  0  0  0  0  0  0  0  0  0  0  0
    2.9795   -8.5433    0.0000 C   0  0  0  0  0  0  0  0  0  0  0  0
   -1.5054   -7.6022    0.0000 C   0  0  0  0  0  0  0  0  0  0  0  0
   -0.0391   -7.2822    0.0000 C   0  0  0  0  0  0  0  0  0  0  0  0
    0.9703   -8.3919    0.0000 C   0  0  0  0  0  0  0  0  0  0  0  0
   -0.9531  -10.1414    0.0000 C   0  0  0  0  0  0  0  0  0  0  0  0
   -1.9624   -9.0317    0.0000 C   0  0  0  0  0  0  0  0  0  0  0  0
    0.5133   -9.8214    0.0000 C   0  0  0  0  0  0  0  0  0  0  0  0
    1.5226  -10.9311    0.0000 C   0  0  0  0  0  0  0  0  0  0  0  0
   -4.1144   -1.5757    0.0000 C   0  0  0  0  0  0  0  0  0  0  0  0
   -4.3453   -3.0578    0.0000 O   0  0  0  0  0  0  0  0  0  0  0  0
   -5.7443   -3.5989    0.0000 C   0  0  0  0  0  0  0  0  0  0  0  0
   -5.9752   -5.0811    0.0000 C   0  0  0  0  0  0  0  0  0  0  0  0
   -6.9124   -2.6579    0.0000 O   0  0  0  0  0  0  0  0  0  0  0  0
  1  2  1  0
  2  3  2  0
  3  4  1  0
  4  5  1  0
  6  5  1  0
  6  7  1  6
  6  8  1  0
  8  9  1  0
  9 10  1  0
 10 11  1  0
 11 12  1  0
  8 12  1  0
 11 13  1  0
 10 13  1  0
  6 13  1  0
 13 14  1  0
  2 15  1  0
 15 16  1  0
 16 17  1  0
 17 18  1  0
 17 19  2  0
M  END
>  <cdk:Title>  (34) 
alpha-Santalol acetate

>  <1A2>  (34) 
N

>  <2A6>  (34) 
N

>  <2B6>  (34) 
N

>  <2C8>  (34) 
N

>  <2C9>  (34) 
N

>  <2C19>  (34) 
N

>  <2D6>  (34) 
N

>  <2E1>  (34) 
N

>  <3A4>  (34) 
N

>  <Citation>  (34) 
Nucleic Acids Res. 2018. Jan 4;46(D1):D608-17. PMID:29140435
Nucleic Acids Res. 2018 Jan 4;46(D1):D1074-D1082. PMID:29126136
Nucleic Acids Res., 45:D380-388 (2017).  PMID:27924025
Nucleic Acids Res. 2016 Jan 4;44(D1):D1202-13. PMID:26400175

>  <ROMol>  (34) 
<rdkit.Chem.rdchem.Mol object at 0x7c29060d6e30>

>  <Drug_like>  (34) 
True

$$$$
Glutaminylhistidine
     RDKit          2D

 20 20  0  0  0  0  0  0  0  0999 V2000
    4.9391    1.1652    0.0000 N   0  0  0  0  0  0  0  0  0  0  0  0
    3.4512    1.3548    0.0000 C   0  0  0  0  0  0  0  0  0  0  0  0
    2.8714    2.7382    0.0000 O   0  0  0  0  0  0  0  0  0  0  0  0
    2.5429    0.1610    0.0000 C   0  0  0  0  0  0  0  0  0  0  0  0
    1.9553   -1.7298    0.0000 N   0  0  0  0  0  0  0  0  0  0  0  0
    1.0550    0.3507    0.0000 C   0  0  0  0  0  0  0  0  0  0  0  0
    0.4752    1.7341    0.0000 C   0  0  0  0  0  0  0  0  0  0  0  0
   -1.0127    1.9238    0.0000 C   0  0  0  0  0  0  0  0  0  0  0  0
   -1.9209    0.7300    0.0000 O   0  0  0  0  0  0  0  0  0  0  0  0
   -1.5925    3.3072    0.0000 N   0  0  0  0  0  0  0  0  0  0  0  0
    5.8474    2.3589    0.0000 C   0  0  0  0  0  0  0  0  0  0  0  0
    7.8115    2.1086    0.0000 C   0  0  0  0  0  0  0  0  0  0  0  0
    8.7197    3.3024    0.0000 C   0  0  0  0  0  0  0  0  0  0  0  0
    8.2897    4.7424    0.0000 C   0  0  0  0  0  0  0  0  0  0  0  0
    9.5197    5.5924    0.0000 N   0  0  0  0  0  0  0  0  0  0  0  0
   10.7097    4.6824    0.0000 C   0  0  0  0  0  0  0  0  0  0  0  0
   10.2097    3.2724    0.0000 N   0  0  0  0  0  0  0  0  0  0  0  0
    6.2925    3.7914    0.0000 C   0  0  0  0  0  0  0  0  0  0  0  0
    5.2746    4.8931    0.0000 O   0  0  0  0  0  0  0  0  0  0  0  0
    7.7556    4.1221    0.0000 O   0  0  0  0  0  0  0  0  0  0  0  0
  1  2  1  0
  2  3  2  0
  2  4  1  0
  4  5  1  0
  4  6  1  0
  6  7  1  0
  7  8  1  0
  8  9  2  0
  8 10  1  0
  1 11  1  0
 11 12  1  0
 12 13  1  0
 13 14  2  0
 14 15  1  0
 15 16  2  0
 16 17  1  0
 13 17  1  0
 11 18  1  0
 18 19  1  0
 18 20  2  0
M  END
>  <cdk:Title>  (35) 
Glutaminylhistidine

>  <1A2>  (35) 
N

>  <2A6>  (35) 
N

>  <2B6>  (35) 
N

>  <2C8>  (35) 
N

>  <2C9>  (35) 
N

>  <2C19>  (35) 
N

>  <2D6>  (35) 
N

>  <2E1>  (35) 
N

>  <3A4>  (35) 
N

>  <Citation>  (35) 
Nucleic Acids Res. 2018. Jan 4;46(D1):D608-17. PMID:29140435
Nucleic Acids Res. 2018 Jan 4;46(D1):D1074-D1082. PMID:29126136
Nucleic Acids Res., 45:D380-388 (2017).  PMID:27924025
Nucleic Acids Res. 2016 Jan 4;44(D1):D1202-13. PMID:26400175

>  <ROMol>  (35) 
<rdkit.Chem.rdchem.Mol object at 0x7c29060d6f80>

>  <Drug_like>  (35) 
True

$$$$
H-His-phe-OH
     RDKit          2D

 22 23  0  0  0  0  0  0  0  0999 V2000
   -3.9943    4.7520    0.0000 N   0  0  0  0  0  0  0  0  0  0  0  0
   -5.2933    4.0020    0.0000 C   0  0  0  0  0  0  0  0  0  0  0  0
   -5.2933    2.5020    0.0000 O   0  0  0  0  0  0  0  0  0  0  0  0
   -6.5924    4.7520    0.0000 C   0  0  0  0  0  0  0  0  0  0  0  0
   -7.1054    3.3424    0.0000 N   0  0  0  0  0  0  0  0  0  0  0  0
   -6.5924    6.2520    0.0000 C   0  0  0  0  0  0  0  0  0  0  0  0
   -7.8914    7.0020    0.0000 C   0  0  0  0  0  0  0  0  0  0  0  0
   -8.0514    8.4963    0.0000 C   0  0  0  0  0  0  0  0  0  0  0  0
   -9.5143    8.8048    0.0000 N   0  0  0  0  0  0  0  0  0  0  0  0
  -10.2601    7.5056    0.0000 C   0  0  0  0  0  0  0  0  0  0  0  0
   -9.2540    6.3984    0.0000 N   0  0  0  0  0  0  0  0  0  0  0  0
   -2.6953    4.0020    0.0000 C   0  0  0  0  0  0  0  0  0  0  0  0
   -2.6953    2.5020    0.0000 C   0  0  0  0  0  0  0  0  0  0  0  0
   -1.3962    1.7520    0.0000 C   0  0  0  0  0  0  0  0  0  0  0  0
   -1.3967    0.2511    0.0000 C   0  0  0  0  0  0  0  0  0  0  0  0
   -0.0977   -0.4989    0.0000 C   0  0  0  0  0  0  0  0  0  0  0  0
    1.2018    0.2520    0.0000 C   0  0  0  0  0  0  0  0  0  0  0  0
    1.2023    1.7528    0.0000 C   0  0  0  0  0  0  0  0  0  0  0  0
   -0.0967    2.5028    0.0000 C   0  0  0  0  0  0  0  0  0  0  0  0
   -2.1822    5.4115    0.0000 C   0  0  0  0  0  0  0  0  0  0  0  0
   -0.7050    5.6720    0.0000 O   0  0  0  0  0  0  0  0  0  0  0  0
   -3.1464    6.5606    0.0000 O   0  0  0  0  0  0  0  0  0  0  0  0
  1  2  1  0
  2  3  2  0
  2  4  1  0
  4  5  1  0
  4  6  1  0
  6  7  1  0
  7  8  2  0
  8  9  1  0
  9 10  2  0
 10 11  1  0
  7 11  1  0
  1 12  1  0
 12 13  1  0
 13 14  1  0
 14 15  2  0
 15 16  1  0
 16 17  2  0
 17 18  1  0
 18 19  2  0
 14 19  1  0
 12 20  1  0
 20 21  1  0
 20 22  2  0
M  END
>  <cdk:Title>  (36) 
H-His-phe-OH

>  <1A2>  (36) 
N

>  <2A6>  (36) 
N

>  <2B6>  (36) 
N

>  <2C8>  (36) 
N

>  <2C9>  (36) 
N

>  <2C19>  (36) 
N

>  <2D6>  (36) 
N

>  <2E1>  (36) 
N

>  <3A4>  (36) 
N

>  <Citation>  (36) 
Nucleic Acids Res. 2018. Jan 4;46(D1):D608-17. PMID:29140435
Nucleic Acids Res. 2018 Jan 4;46(D1):D1074-D1082. PMID:29126136
Nucleic Acids Res., 45:D380-388 (2017).  PMID:27924025
Nucleic Acids Res. 2016 Jan 4;44(D1):D1202-13. PMID:26400175

>  <ROMol>  (36) 
<rdkit.Chem.rdchem.Mol object at 0x7c29060d6ff0>

>  <Drug_like>  (36) 
True

$$$$
Thiiranebutanenitrile
     RDKit          2D

  8  8  0  0  0  0  0  0  0  0999 V2000
    2.3088   -1.6482    0.0000 C   0  0  0  0  0  0  0  0  0  0  0  0
    3.2728   -2.7974    0.0000 C   0  0  0  0  0  0  0  0  0  0  0  0
    2.7596   -4.2069    0.0000 C   0  0  0  0  0  0  0  0  0  0  0  0
    2.2465   -5.6164    0.0000 N   0  0  0  0  0  0  0  0  0  0  0  0
    0.8315   -1.9086    0.0000 C   0  0  0  0  0  0  0  0  0  0  0  0
   -0.4410   -0.3917    0.0000 C   0  0  0  0  0  0  0  0  0  0  0  0
   -1.7401   -1.1417    0.0000 C   0  0  0  0  0  0  0  0  0  0  0  0
   -1.7406    0.3592    0.0000 S   0  0  0  0  0  0  0  0  0  0  0  0
  1  2  1  0
  2  3  1  0
  3  4  3  0
  1  5  1  0
  5  6  1  0
  6  7  1  0
  7  8  1  0
  6  8  1  0
M  END
>  <cdk:Title>  (37) 
Thiiranebutanenitrile

>  <1A2>  (37) 
N

>  <2A6>  (37) 
N

>  <2B6>  (37) 
N

>  <2C8>  (37) 
N

>  <2C9>  (37) 
N

>  <2C19>  (37) 
N

>  <2D6>  (37) 
N

>  <2E1>  (37) 
N

>  <3A4>  (37) 
N

>  <Citation>  (37) 
Nucleic Acids Res. 2018. Jan 4;46(D1):D608-17. PMID:29140435
Nucleic Acids Res. 2018 Jan 4;46(D1):D1074-D1082. PMID:29126136
Nucleic Acids Res., 45:D380-388 (2017).  PMID:27924025
Nucleic Acids Res. 2016 Jan 4;44(D1):D1202-13. PMID:26400175

>  <ROMol>  (37) 
<rdkit.Chem.rdchem.Mol object at 0x7c29060d7060>

>  <Drug_like>  (37) 
True

$$$$
Dioscoretin
     RDKit          2D

 17 18  0  0  0  0  0  0  0  0999 V2000
   -2.8347   -1.6155    0.0000 C   0  0  0  0  0  0  0  0  0  0  0  0
   -2.3217   -0.2060    0.0000 C   0  0  0  0  0  0  0  0  0  0  0  0
   -4.7443    0.2212    0.0000 C   0  0  0  0  0  0  0  0  0  0  0  0
   -5.7085   -0.9279    0.0000 C   0  0  0  0  0  0  0  0  0  0  0  0
   -5.1955   -2.3374    0.0000 O   0  0  0  0  0  0  0  0  0  0  0  0
   -7.1857   -0.6674    0.0000 O   0  0  0  0  0  0  0  0  0  0  0  0
   -0.4319    2.0462    0.0000 C   0  0  0  0  0  0  0  0  0  0  0  0
    2.4634    1.5357    0.0000 C   0  0  0  0  0  0  0  0  0  0  0  0
    2.4634    3.0357    0.0000 C   0  0  0  0  0  0  0  0  0  0  0  0
    3.7625    3.7857    0.0000 C   0  0  0  0  0  0  0  0  0  0  0  0
    0.6163    3.4067    0.0000 C   0  0  0  0  0  0  0  0  0  0  0  0
    0.6163    1.1646    0.0000 C   0  0  0  0  0  0  0  0  0  0  0  0
    3.7625    0.7857    0.0000 C   0  0  0  0  0  0  0  0  0  0  0  0
    5.0615    1.5357    0.0000 C   0  0  0  0  0  0  0  0  0  0  0  0
    5.0615    3.0357    0.0000 N   0  0  0  0  0  0  0  0  0  0  0  0
    6.3605    3.7857    0.0000 C   0  0  0  0  0  0  0  0  0  0  0  0
    1.6220   -0.7760    0.0000 O   0  0  0  0  0  0  0  0  0  0  0  0
  1  2  1  0
  2  3  1  0
  3  4  1  0
  4  5  2  0
  4  6  1  0
  2  7  1  0
  7  8  1  0
  8  9  1  0
  9 10  1  0
 10 11  1  0
 11 12  1  0
 12 13  1  0
  8 13  1  0
 13 14  1  0
 14 15  1  0
 10 15  1  0
 15 16  1  0
  8 17  1  1
M  END
>  <cdk:Title>  (38) 
Dioscoretin

>  <1A2>  (38) 
N

>  <2A6>  (38) 
N

>  <2B6>  (38) 
N

>  <2C8>  (38) 
N

>  <2C9>  (38) 
N

>  <2C19>  (38) 
N

>  <2D6>  (38) 
N

>  <2E1>  (38) 
N

>  <3A4>  (38) 
N

>  <Citation>  (38) 
Nucleic Acids Res. 2018. Jan 4;46(D1):D608-17. PMID:29140435
Nucleic Acids Res. 2018 Jan 4;46(D1):D1074-D1082. PMID:29126136
Nucleic Acids Res., 45:D380-388 (2017).  PMID:27924025
Nucleic Acids Res. 2016 Jan 4;44(D1):D1202-13. PMID:26400175

>  <ROMol>  (38) 
<rdkit.Chem.rdchem.Mol object at 0x7c29060d70d0>

>  <Drug_like>  (38) 
True

$$$$
Lepidiumterpenyl ester
     RDKit          2D

 27 26  0  0  0  0  0  0  0  0999 V2000
    4.9190    5.9808    0.0000 C   0  0  0  0  0  0  0  0  0  0  0  0
    5.6690    7.2798    0.0000 C   0  0  0  0  0  0  0  0  0  0  0  0
    7.1690    7.2798    0.0000 C   0  0  0  0  0  0  0  0  0  0  0  0
    7.9190    8.5789    0.0000 C   0  0  0  0  0  0  0  0  0  0  0  0
    9.8990    8.5789    0.0000 C   0  0  0  0  0  0  0  0  0  0  0  0
   11.1290   10.7093    0.0000 C   0  0  0  0  0  0  0  0  0  0  0  0
   12.6290   10.7093    0.0000 C   0  0  0  0  0  0  0  0  0  0  0  0
   13.3790   12.0083    0.0000 O   0  0  0  0  0  0  0  0  0  0  0  0
   14.8790   12.0083    0.0000 C   0  0  0  0  0  0  0  0  0  0  0  0
   15.6290   13.3074    0.0000 C   0  0  0  0  0  0  0  0  0  0  0  0
   15.9728   15.2573    0.0000 C   0  0  0  0  0  0  0  0  0  0  0  0
   17.1290   13.3074    0.0000 C   0  0  0  0  0  0  0  0  0  0  0  0
   17.8790   12.0083    0.0000 C   0  0  0  0  0  0  0  0  0  0  0  0
   20.3390   12.0083    0.0000 C   0  0  0  0  0  0  0  0  0  0  0  0
   21.3290   10.2936    0.0000 C   0  0  0  0  0  0  0  0  0  0  0  0
   21.5895    8.8164    0.0000 C   0  0  0  0  0  0  0  0  0  0  0  0
   23.3090   10.2936    0.0000 C   0  0  0  0  0  0  0  0  0  0  0  0
   24.7790    7.7475    0.0000 C   0  0  0  0  0  0  0  0  0  0  0  0
   27.2390    7.7475    0.0000 C   0  0  0  0  0  0  0  0  0  0  0  0
   28.7090    5.2014    0.0000 C   0  0  0  0  0  0  0  0  0  0  0  0
   28.9695    3.7242    0.0000 C   0  0  0  0  0  0  0  0  0  0  0  0
   31.6490    5.2014    0.0000 C   0  0  0  0  0  0  0  0  0  0  0  0
   33.1190    2.6552    0.0000 C   0  0  0  0  0  0  0  0  0  0  0  0
   34.6190    2.6552    0.0000 C   0  0  0  0  0  0  0  0  0  0  0  0
   35.3690    3.9543    0.0000 O   0  0  0  0  0  0  0  0  0  0  0  0
   35.3690    1.3562    0.0000 O   0  0  0  0  0  0  0  0  0  0  0  0
   15.6290   10.7093    0.0000 O   0  0  0  0  0  0  0  0  0  0  0  0
  1  2  2  0
  2  3  1  0
  3  4  1  0
  4  5  1  0
  5  6  1  0
  6  7  1  0
  7  8  1  0
  8  9  1  0
  9 10  1  0
 10 11  1  0
 10 12  1  0
 12 13  1  0
 13 14  1  0
 14 15  1  0
 15 16  1  0
 15 17  1  0
 17 18  1  0
 18 19  1  0
 19 20  1  0
 20 21  1  0
 20 22  1  0
 22 23  1  0
 23 24  1  0
 24 25  2  0
 24 26  1  0
  9 27  2  0
M  END
>  <cdk:Title>  (39) 
Lepidiumterpenyl ester

>  <1A2>  (39) 
N

>  <2A6>  (39) 
N

>  <2B6>  (39) 
N

>  <2C8>  (39) 
N

>  <2C9>  (39) 
N

>  <2C19>  (39) 
N

>  <2D6>  (39) 
N

>  <2E1>  (39) 
N

>  <3A4>  (39) 
N

>  <Citation>  (39) 
Nucleic Acids Res. 2018. Jan 4;46(D1):D608-17. PMID:29140435
Nucleic Acids Res. 2018 Jan 4;46(D1):D1074-D1082. PMID:29126136
Nucleic Acids Res., 45:D380-388 (2017).  PMID:27924025
Nucleic Acids Res. 2016 Jan 4;44(D1):D1202-13. PMID:26400175

>  <ROMol>  (39) 
<rdkit.Chem.rdchem.Mol object at 0x7c29060d7140>

>  <Drug_like>  (39) 
True

$$$$
11_13-Dihydrotaraxinic acid glucosyl ester
     RDKit          2D

 30 32  0  0  0  0  0  0  0  0999 V2000
   -3.0573    2.1979    0.0000 C   0  0  0  0  0  0  0  0  0  0  0  0
   -3.7073    0.8379    0.0000 C   0  0  0  0  0  0  0  0  0  0  0  0
   -3.0573   -0.5121    0.0000 C   0  0  0  0  0  0  0  0  0  0  0  0
   -1.5873   -0.8421    0.0000 C   0  0  0  0  0  0  0  0  0  0  0  0
   -0.4173    0.0879    0.0000 C   0  0  0  0  0  0  0  0  0  0  0  0
    1.0127   -0.3721    0.0000 C   0  0  0  0  0  0  0  0  0  0  0  0
    1.8927   -1.5821    0.0000 O   0  0  0  0  0  0  0  0  0  0  0  0
    3.3127   -1.1221    0.0000 C   0  0  0  0  0  0  0  0  0  0  0  0
    3.3127    0.3779    0.0000 C   0  0  0  0  0  0  0  0  0  0  0  0
    1.8927    0.8379    0.0000 C   0  0  0  0  0  0  0  0  0  0  0  0
    1.0127    2.0579    0.0000 C   0  0  0  0  0  0  0  0  0  0  0  0
   -0.4173    1.5879    0.0000 C   0  0  0  0  0  0  0  0  0  0  0  0
   -1.5873    2.5279    0.0000 C   0  0  0  0  0  0  0  0  0  0  0  0
   -1.2482    3.9890    0.0000 C   0  0  0  0  0  0  0  0  0  0  0  0
   -2.3441    5.0132    0.0000 O   0  0  0  0  0  0  0  0  0  0  0  0
   -2.0051    6.4744    0.0000 C   0  0  0  0  0  0  0  0  0  0  0  0
   -3.5087    6.5570    0.0000 C   0  0  0  0  0  0  0  0  0  0  0  0
   -4.1890    7.8826    0.0000 C   0  0  0  0  0  0  0  0  0  0  0  0
   -3.3749    9.1435    0.0000 O   0  0  0  0  0  0  0  0  0  0  0  0
   -1.8580    9.0789    0.0000 C   0  0  0  0  0  0  0  0  0  0  0  0
   -1.1777    7.7533    0.0000 C   0  0  0  0  0  0  0  0  0  0  0  0
   -0.0785    6.7326    0.0000 O   0  0  0  0  0  0  0  0  0  0  0  0
   -0.4259    9.5249    0.0000 O   0  0  0  0  0  0  0  0  0  0  0  0
   -5.2888    8.9027    0.0000 C   0  0  0  0  0  0  0  0  0  0  0  0
   -4.9553   10.3651    0.0000 O   0  0  0  0  0  0  0  0  0  0  0  0
   -4.9427    6.1169    0.0000 O   0  0  0  0  0  0  0  0  0  0  0  0
    0.1867    4.4260    0.0000 O   0  0  0  0  0  0  0  0  0  0  0  0
    4.8046    0.2215    0.0000 C   0  0  0  0  0  0  0  0  0  0  0  0
    4.5259   -2.0044    0.0000 O   0  0  0  0  0  0  0  0  0  0  0  0
   -1.1448   -2.7721    0.0000 C   0  0  0  0  0  0  0  0  0  0  0  0
  1  2  1  0
  2  3  1  0
  3  4  1  0
  4  5  2  0
  5  6  1  0
  6  7  1  0
  7  8  1  0
  8  9  1  0
  9 10  1  0
  6 10  1  0
 10 11  1  0
 11 12  1  0
 12 13  1  0
  1 13  2  0
 13 14  1  0
 14 15  1  0
 15 16  1  0
 16 17  1  0
 17 18  1  0
 18 19  1  0
 19 20  1  0
 20 21  1  0
 16 21  1  0
 21 22  1  0
 20 23  1  0
 18 24  1  0
 24 25  1  0
 17 26  1  0
 14 27  2  0
  9 28  1  0
  8 29  2  0
  4 30  1  0
M  END
>  <cdk:Title>  (40) 
11_13-Dihydrotaraxinic acid glucosyl ester

>  <1A2>  (40) 
N

>  <2A6>  (40) 
N

>  <2B6>  (40) 
N

>  <2C8>  (40) 
N

>  <2C9>  (40) 
N

>  <2C19>  (40) 
N

>  <2D6>  (40) 
N

>  <2E1>  (40) 
N

>  <3A4>  (40) 
N

>  <Citation>  (40) 
Nucleic Acids Res. 2018. Jan 4;46(D1):D608-17. PMID:29140435
Nucleic Acids Res. 2018 Jan 4;46(D1):D1074-D1082. PMID:29126136
Nucleic Acids Res., 45:D380-388 (2017).  PMID:27924025
Nucleic Acids Res. 2016 Jan 4;44(D1):D1202-13. PMID:26400175

>  <ROMol>  (40) 
<rdkit.Chem.rdchem.Mol object at 0x7c29060d71b0>

>  <Drug_like>  (40) 
True

$$$$
AC1l2PBB
     RDKit          2D

 38 42  0  0  0  0  0  0  0  0999 V2000
   -6.7465    5.0501    0.0000 C   0  0  0  0  0  0  0  0  0  0  0  0
   -6.7502    3.5601    0.0000 C   0  0  0  0  0  0  0  0  0  0  0  0
   -8.0721    2.8034    0.0000 C   0  0  0  0  0  0  0  0  0  0  0  0
   -9.3702    3.5667    0.0000 C   0  0  0  0  0  0  0  0  0  0  0  0
   -9.3665    5.0567    0.0000 C   0  0  0  0  0  0  0  0  0  0  0  0
   -8.0646    5.8034    0.0000 O   0  0  0  0  0  0  0  0  0  0  0  0
   -9.8756    6.4676    0.0000 C   0  0  0  0  0  0  0  0  0  0  0  0
   -8.9083    7.6141    0.0000 O   0  0  0  0  0  0  0  0  0  0  0  0
  -11.3521    6.7321    0.0000 O   0  0  0  0  0  0  0  0  0  0  0  0
  -10.8463    3.8336    0.0000 O   0  0  0  0  0  0  0  0  0  0  0  0
   -9.0438    1.6607    0.0000 O   0  0  0  0  0  0  0  0  0  0  0  0
   -6.2418    2.1489    0.0000 O   0  0  0  0  0  0  0  0  0  0  0  0
   -4.3239    4.6224    0.0000 O   0  0  0  0  0  0  0  0  0  0  0  0
   -3.3595    5.7713    0.0000 C   0  0  0  0  0  0  0  0  0  0  0  0
   -2.3949    4.6215    0.0000 C   0  0  0  0  0  0  0  0  0  0  0  0
   -0.9167    4.8810    0.0000 C   0  0  0  0  0  0  0  0  0  0  0  0
    0.0479    3.7312    0.0000 C   0  0  0  0  0  0  0  0  0  0  0  0
    1.5261    3.9907    0.0000 C   0  0  0  0  0  0  0  0  0  0  0  0
    2.4907    2.8409    0.0000 C   0  0  0  0  0  0  0  0  0  0  0  0
    3.9918    2.7834    0.0000 C   0  0  0  0  0  0  0  0  0  0  0  0
    4.4043    1.3452    0.0000 C   0  0  0  0  0  0  0  0  0  0  0  0
    3.1631    0.5097    0.0000 C   0  0  0  0  0  0  0  0  0  0  0  0
    1.9771    1.4316    0.0000 C   0  0  0  0  0  0  0  0  0  0  0  0
    0.4989    1.1721    0.0000 C   0  0  0  0  0  0  0  0  0  0  0  0
   -0.4657    2.3219    0.0000 C   0  0  0  0  0  0  0  0  0  0  0  0
   -1.9430    2.0618    0.0000 O   0  0  0  0  0  0  0  0  0  0  0  0
    1.3841   -0.9559    0.0000 C   0  0  0  0  0  0  0  0  0  0  0  0
    5.0535   -1.7420    0.0000 C   0  0  0  0  0  0  0  0  0  0  0  0
    6.5306   -1.4812    0.0000 C   0  0  0  0  0  0  0  0  0  0  0  0
    7.4951   -2.6300    0.0000 O   0  0  0  0  0  0  0  0  0  0  0  0
    5.5668   -3.1514    0.0000 O   0  0  0  0  0  0  0  0  0  0  0  0
    1.1237   -1.6079    0.0000 O   0  0  0  0  0  0  0  0  0  0  0  0
    2.0398    5.4000    0.0000 C   0  0  0  0  0  0  0  0  0  0  0  0
    1.0752    6.5498    0.0000 C   0  0  0  0  0  0  0  0  0  0  0  0
   -0.4030    6.2903    0.0000 C   0  0  0  0  0  0  0  0  0  0  0  0
   -1.3676    7.4401    0.0000 C   0  0  0  0  0  0  0  0  0  0  0  0
   -2.8459    7.1806    0.0000 C   0  0  0  0  0  0  0  0  0  0  0  0
   -1.5947    3.0207    0.0000 C   0  0  0  0  0  0  0  0  0  0  0  0
  1  2  1  0
  2  3  1  0
  3  4  1  0
  4  5  1  0
  5  6  1  0
  1  6  1  0
  5  7  1  0
  7  8  2  0
  7  9  1  0
  4 10  1  0
  3 11  1  0
  2 12  1  0
  1 13  1  0
 13 14  1  0
 14 15  1  0
 15 16  1  0
 16 17  1  0
 17 18  1  0
 18 19  1  0
 19 20  1  0
 20 21  1  0
 21 22  1  0
 22 23  1  0
 19 23  1  0
 23 24  1  0
 24 25  1  0
 17 25  1  0
 25 26  2  0
 23 27  1  6
 22 28  1  0
 28 29  1  0
 29 30  1  0
 28 31  1  0
 22 32  1  1
 18 33  1  0
 33 34  1  0
 34 35  1  0
 16 35  1  0
 35 36  1  0
 36 37  1  0
 14 37  1  0
 16 38  1  6
M  END
>  <cdk:Title>  (41) 
AC1l2PBB

>  <1A2>  (41) 
N

>  <2A6>  (41) 
N

>  <2B6>  (41) 
N

>  <2C8>  (41) 
N

>  <2C9>  (41) 
N

>  <2C19>  (41) 
N

>  <2D6>  (41) 
N

>  <2E1>  (41) 
N

>  <3A4>  (41) 
N

>  <Citation>  (41) 
Nucleic Acids Res. 2018. Jan 4;46(D1):D608-17. PMID:29140435
Nucleic Acids Res. 2018 Jan 4;46(D1):D1074-D1082. PMID:29126136
Nucleic Acids Res., 45:D380-388 (2017).  PMID:27924025
Nucleic Acids Res. 2016 Jan 4;44(D1):D1202-13. PMID:26400175

>  <ROMol>  (41) 
<rdkit.Chem.rdchem.Mol object at 0x7c29060d7300>

>  <Drug_like>  (41) 
True

$$$$
alpha-Asp-ile
     RDKit          2D

 17 16  0  0  0  0  0  0  0  0999 V2000
   10.5565   -4.5289    0.0000 C   0  0  0  0  0  0  0  0  0  0  0  0
    9.2574   -5.2789    0.0000 C   0  0  0  0  0  0  0  0  0  0  0  0
    7.9584   -4.5289    0.0000 C   0  0  0  0  0  0  0  0  0  0  0  0
    7.2812   -6.3895    0.0000 C   0  0  0  0  0  0  0  0  0  0  0  0
    7.9584   -3.0289    0.0000 C   0  0  0  0  0  0  0  0  0  0  0  0
    6.6594   -2.2789    0.0000 N   0  0  0  0  0  0  0  0  0  0  0  0
    6.6594   -0.2989    0.0000 C   0  0  0  0  0  0  0  0  0  0  0  0
    7.9584    0.4511    0.0000 O   0  0  0  0  0  0  0  0  0  0  0  0
    5.3603    0.4511    0.0000 C   0  0  0  0  0  0  0  0  0  0  0  0
    6.3245    1.6001    0.0000 N   0  0  0  0  0  0  0  0  0  0  0  0
    4.0613   -0.2989    0.0000 C   0  0  0  0  0  0  0  0  0  0  0  0
    2.7622    0.4511    0.0000 C   0  0  0  0  0  0  0  0  0  0  0  0
    2.7622    1.9511    0.0000 O   0  0  0  0  0  0  0  0  0  0  0  0
    1.4632   -0.2989    0.0000 O   0  0  0  0  0  0  0  0  0  0  0  0
    8.4714   -1.6194    0.0000 C   0  0  0  0  0  0  0  0  0  0  0  0
    9.9486   -1.3589    0.0000 O   0  0  0  0  0  0  0  0  0  0  0  0
    7.5072   -0.4703    0.0000 O   0  0  0  0  0  0  0  0  0  0  0  0
  1  2  1  0
  2  3  1  0
  3  4  1  0
  3  5  1  0
  5  6  1  0
  6  7  1  0
  7  8  2  0
  7  9  1  0
  9 10  1  0
  9 11  1  0
 11 12  1  0
 12 13  2  0
 12 14  1  0
  5 15  1  0
 15 16  1  0
 15 17  2  0
M  END
>  <cdk:Title>  (42) 
alpha-Asp-ile

>  <1A2>  (42) 
N

>  <2A6>  (42) 
N

>  <2B6>  (42) 
N

>  <2C8>  (42) 
N

>  <2C9>  (42) 
N

>  <2C19>  (42) 
N

>  <2D6>  (42) 
N

>  <2E1>  (42) 
N

>  <3A4>  (42) 
N

>  <Citation>  (42) 
Nucleic Acids Res. 2018. Jan 4;46(D1):D608-17. PMID:29140435
Nucleic Acids Res. 2018 Jan 4;46(D1):D1074-D1082. PMID:29126136
Nucleic Acids Res., 45:D380-388 (2017).  PMID:27924025
Nucleic Acids Res. 2016 Jan 4;44(D1):D1202-13. PMID:26400175

>  <ROMol>  (42) 
<rdkit.Chem.rdchem.Mol object at 0x7c29060d7370>

>  <Drug_like>  (42) 
True

$$$$
Glutaminylleucine
     RDKit          2D

 18 17  0  0  0  0  0  0  0  0999 V2000
   13.1405    0.4028    0.0000 C   0  0  0  0  0  0  0  0  0  0  0  0
   12.2992   -1.9088    0.0000 C   0  0  0  0  0  0  0  0  0  0  0  0
   12.2992   -3.4088    0.0000 C   0  0  0  0  0  0  0  0  0  0  0  0
    9.7531   -0.4388    0.0000 C   0  0  0  0  0  0  0  0  0  0  0  0
    8.4540   -1.1888    0.0000 C   0  0  0  0  0  0  0  0  0  0  0  0
    7.1550   -0.4388    0.0000 N   0  0  0  0  0  0  0  0  0  0  0  0
    7.1550    1.0612    0.0000 C   0  0  0  0  0  0  0  0  0  0  0  0
    8.4540    1.8112    0.0000 O   0  0  0  0  0  0  0  0  0  0  0  0
    5.8559    1.8112    0.0000 C   0  0  0  0  0  0  0  0  0  0  0  0
    6.8201    2.9602    0.0000 N   0  0  0  0  0  0  0  0  0  0  0  0
    4.1412    0.8212    0.0000 C   0  0  0  0  0  0  0  0  0  0  0  0
    2.8422    1.5712    0.0000 C   0  0  0  0  0  0  0  0  0  0  0  0
    1.5431    0.8212    0.0000 C   0  0  0  0  0  0  0  0  0  0  0  0
    1.5431   -0.6788    0.0000 O   0  0  0  0  0  0  0  0  0  0  0  0
    0.2441    1.5712    0.0000 N   0  0  0  0  0  0  0  0  0  0  0  0
    7.4898   -2.3379    0.0000 C   0  0  0  0  0  0  0  0  0  0  0  0
    8.0029   -3.7474    0.0000 O   0  0  0  0  0  0  0  0  0  0  0  0
    6.0126   -2.0774    0.0000 O   0  0  0  0  0  0  0  0  0  0  0  0
  1  2  1  0
  2  3  1  0
  2  4  1  0
  4  5  1  0
  5  6  1  0
  6  7  1  0
  7  8  2  0
  7  9  1  0
  9 10  1  0
  9 11  1  0
 11 12  1  0
 12 13  1  0
 13 14  2  0
 13 15  1  0
  5 16  1  0
 16 17  1  0
 16 18  2  0
M  END
>  <cdk:Title>  (43) 
Glutaminylleucine

>  <1A2>  (43) 
N

>  <2A6>  (43) 
N

>  <2B6>  (43) 
N

>  <2C8>  (43) 
N

>  <2C9>  (43) 
N

>  <2C19>  (43) 
N

>  <2D6>  (43) 
N

>  <2E1>  (43) 
N

>  <3A4>  (43) 
N

>  <Citation>  (43) 
Nucleic Acids Res. 2018. Jan 4;46(D1):D608-17. PMID:29140435
Nucleic Acids Res. 2018 Jan 4;46(D1):D1074-D1082. PMID:29126136
Nucleic Acids Res., 45:D380-388 (2017).  PMID:27924025
Nucleic Acids Res. 2016 Jan 4;44(D1):D1202-13. PMID:26400175

>  <ROMol>  (43) 
<rdkit.Chem.rdchem.Mol object at 0x7c29060d73e0>

>  <Drug_like>  (43) 
True

$$$$
Gibberellin a92
     RDKit          2D

 25 29  0  0  0  0  0  0  0  0999 V2000
   -2.0830    1.6513    0.0000 C   0  0  0  0  0  0  0  0  0  0  0  0
   -1.0868    4.4174    0.0000 C   0  0  0  0  0  0  0  0  0  0  0  0
   -2.3868    5.1674    0.0000 C   0  0  0  0  0  0  0  0  0  0  0  0
   -2.3868    6.6474    0.0000 C   0  0  0  0  0  0  0  0  0  0  0  0
   -1.0868    7.4074    0.0000 C   0  0  0  0  0  0  0  0  0  0  0  0
    0.1955    8.9160    0.0000 O   0  0  0  0  0  0  0  0  0  0  0  0
    0.1932    6.6474    0.0000 C   0  0  0  0  0  0  0  0  0  0  0  0
    0.1932    5.1674    0.0000 C   0  0  0  0  0  0  0  0  0  0  0  0
    1.4932    4.4174    0.0000 C   0  0  0  0  0  0  0  0  0  0  0  0
   -0.0836    2.5292    0.0000 C   0  0  0  0  0  0  0  0  0  0  0  0
   -1.5614    2.7862    0.0000 O   0  0  0  0  0  0  0  0  0  0  0  0
    0.5980    0.6702    0.0000 O   0  0  0  0  0  0  0  0  0  0  0  0
    2.7732    5.1674    0.0000 C   0  0  0  0  0  0  0  0  0  0  0  0
    2.7732    6.6474    0.0000 C   0  0  0  0  0  0  0  0  0  0  0  0
    4.0732    7.4074    0.0000 C   0  0  0  0  0  0  0  0  0  0  0  0
    5.3732    6.6474    0.0000 C   0  0  0  0  0  0  0  0  0  0  0  0
    5.3732    5.1674    0.0000 C   0  0  0  0  0  0  0  0  0  0  0  0
    6.8659    5.0195    0.0000 O   0  0  0  0  0  0  0  0  0  0  0  0
    5.0732    3.6674    0.0000 C   0  0  0  0  0  0  0  0  0  0  0  0
    6.0242    2.5073    0.0000 C   0  0  0  0  0  0  0  0  0  0  0  0
    3.0732    3.6674    0.0000 C   0  0  0  0  0  0  0  0  0  0  0  0
    4.0732    4.4174    0.0000 C   0  0  0  0  0  0  0  0  0  0  0  0
    0.1932    8.1174    0.0000 O   0  0  0  0  0  0  0  0  0  0  0  0
   -1.4968    5.7074    0.0000 C   0  0  0  0  0  0  0  0  0  0  0  0
   -4.4029    6.1523    0.0000 O   0  0  0  0  0  0  0  0  0  0  0  0
  2  1  1  6
  2  3  1  0
  3  4  2  0
  4  5  1  0
  5  6  1  0
  5  7  1  0
  7  8  1  0
  2  8  1  0
  8  9  1  0
  9 10  1  0
 10 11  2  0
 10 12  1  0
  9 13  1  0
 13 14  1  0
  7 14  1  0
 14 15  1  0
 15 16  1  0
 16 17  1  0
 17 18  1  6
 17 19  1  0
 19 20  2  0
 19 21  1  0
 13 21  1  1
 17 22  1  0
 13 22  1  0
  7 23  1  6
 23 24  1  0
  2 24  1  0
 24 25  2  0
M  END
>  <cdk:Title>  (44) 
Gibberellin a92

>  <1A2>  (44) 
N

>  <2A6>  (44) 
N

>  <2B6>  (44) 
N

>  <2C8>  (44) 
N

>  <2C9>  (44) 
N

>  <2C19>  (44) 
N

>  <2D6>  (44) 
N

>  <2E1>  (44) 
N

>  <3A4>  (44) 
N

>  <Citation>  (44) 
Nucleic Acids Res. 2018. Jan 4;46(D1):D608-17. PMID:29140435
Nucleic Acids Res. 2018 Jan 4;46(D1):D1074-D1082. PMID:29126136
Nucleic Acids Res., 45:D380-388 (2017).  PMID:27924025
Nucleic Acids Res. 2016 Jan 4;44(D1):D1202-13. PMID:26400175

>  <ROMol>  (44) 
<rdkit.Chem.rdchem.Mol object at 0x7c29060d74c0>

>  <Drug_like>  (44) 
True

$$$$
6_10-Dimethylspiro[4.5]dec-6-ene-2_8-dione
     RDKit          2D

 14 15  0  0  0  0  0  0  0  0999 V2000
   -2.2759    0.6001    0.0000 C   0  0  0  0  0  0  0  0  0  0  0  0
   -0.9769    1.3501    0.0000 C   0  0  0  0  0  0  0  0  0  0  0  0
   -0.9769    2.8501    0.0000 C   0  0  0  0  0  0  0  0  0  0  0  0
   -2.2759    3.6001    0.0000 C   0  0  0  0  0  0  0  0  0  0  0  0
   -3.5750    2.8501    0.0000 C   0  0  0  0  0  0  0  0  0  0  0  0
   -3.5750    1.3501    0.0000 C   0  0  0  0  0  0  0  0  0  0  0  0
   -3.7318   -0.1417    0.0000 C   0  0  0  0  0  0  0  0  0  0  0  0
   -5.1990   -0.4535    0.0000 C   0  0  0  0  0  0  0  0  0  0  0  0
   -5.9490    0.8455    0.0000 C   0  0  0  0  0  0  0  0  0  0  0  0
   -4.9453    1.9602    0.0000 C   0  0  0  0  0  0  0  0  0  0  0  0
   -7.4408    1.0023    0.0000 O   0  0  0  0  0  0  0  0  0  0  0  0
   -4.2522    4.7107    0.0000 C   0  0  0  0  0  0  0  0  0  0  0  0
    0.3221    3.6001    0.0000 O   0  0  0  0  0  0  0  0  0  0  0  0
   -2.2759   -2.3399    0.0000 C   0  0  0  0  0  0  0  0  0  0  0  0
  1  2  2  0
  2  3  1  0
  3  4  1  0
  4  5  1  0
  5  6  1  0
  6  1  1  0
  6  7  1  6
  7  8  1  0
  8  9  1  0
  9 10  1  0
  6 10  1  0
  9 11  2  0
  5 12  1  0
  3 13  2  0
  1 14  1  0
M  END
>  <cdk:Title>  (45) 
6_10-Dimethylspiro[4.5]dec-6-ene-2_8-dione

>  <1A2>  (45) 
N

>  <2A6>  (45) 
N

>  <2B6>  (45) 
N

>  <2C8>  (45) 
N

>  <2C9>  (45) 
N

>  <2C19>  (45) 
N

>  <2D6>  (45) 
N

>  <2E1>  (45) 
N

>  <3A4>  (45) 
N

>  <Citation>  (45) 
Nucleic Acids Res. 2018. Jan 4;46(D1):D608-17. PMID:29140435
Nucleic Acids Res. 2018 Jan 4;46(D1):D1074-D1082. PMID:29126136
Nucleic Acids Res., 45:D380-388 (2017).  PMID:27924025
Nucleic Acids Res. 2016 Jan 4;44(D1):D1202-13. PMID:26400175

>  <ROMol>  (45) 
<rdkit.Chem.rdchem.Mol object at 0x7c29060d7530>

>  <Drug_like>  (45) 
True

$$$$
Blennin b
     RDKit          2D

 19 21  0  0  0  0  0  0  0  0999 V2000
    0.1761   -2.6024    0.0000 C   0  0  0  0  0  0  0  0  0  0  0  0
   -0.4076   -0.7104    0.0000 C   0  0  0  0  0  0  0  0  0  0  0  0
    0.6920    0.3099    0.0000 C   0  0  0  0  0  0  0  0  0  0  0  0
    0.5799    1.8057    0.0000 C   0  0  0  0  0  0  0  0  0  0  0  0
   -0.6594    2.6506    0.0000 C   0  0  0  0  0  0  0  0  0  0  0  0
   -2.0928    2.2085    0.0000 C   0  0  0  0  0  0  0  0  0  0  0  0
   -2.6408    0.8122    0.0000 C   0  0  0  0  0  0  0  0  0  0  0  0
   -4.1080    0.5003    0.0000 C   0  0  0  0  0  0  0  0  0  0  0  0
   -4.2648   -0.9915    0.0000 C   0  0  0  0  0  0  0  0  0  0  0  0
   -6.6711   -0.4800    0.0000 C   0  0  0  0  0  0  0  0  0  0  0  0
   -5.1733   -3.7876    0.0000 C   0  0  0  0  0  0  0  0  0  0  0  0
   -2.8945   -1.6016    0.0000 C   0  0  0  0  0  0  0  0  0  0  0  0
   -1.8908   -0.4868    0.0000 C   0  0  0  0  0  0  0  0  0  0  0  0
   -2.2049    3.7043    0.0000 O   0  0  0  0  0  0  0  0  0  0  0  0
   -0.2388    4.0904    0.0000 C   0  0  0  0  0  0  0  0  0  0  0  0
   -0.1267    5.5863    0.0000 O   0  0  0  0  0  0  0  0  0  0  0  0
    1.2605    4.1353    0.0000 O   0  0  0  0  0  0  0  0  0  0  0  0
    1.7665    2.7232    0.0000 C   0  0  0  0  0  0  0  0  0  0  0  0
    3.2064    2.3026    0.0000 O   0  0  0  0  0  0  0  0  0  0  0  0
  1  2  1  0
  2  3  1  0
  3  4  1  0
  4  5  2  0
  5  6  1  0
  6  7  1  0
  7  8  1  0
  8  9  1  0
  9 10  1  0
  9 11  1  0
  9 12  1  0
 12 13  1  0
  2 13  2  0
  7 13  1  0
  6 14  1  0
  5 15  1  0
 15 16  1  0
 15 17  1  0
 17 18  1  0
  4 18  1  0
 18 19  2  0
M  END
>  <cdk:Title>  (46) 
Blennin b

>  <1A2>  (46) 
N

>  <2A6>  (46) 
N

>  <2B6>  (46) 
N

>  <2C8>  (46) 
N

>  <2C9>  (46) 
N

>  <2C19>  (46) 
N

>  <2D6>  (46) 
N

>  <2E1>  (46) 
N

>  <3A4>  (46) 
N

>  <Citation>  (46) 
Nucleic Acids Res. 2018. Jan 4;46(D1):D608-17. PMID:29140435
Nucleic Acids Res. 2018 Jan 4;46(D1):D1074-D1082. PMID:29126136
Nucleic Acids Res., 45:D380-388 (2017).  PMID:27924025
Nucleic Acids Res. 2016 Jan 4;44(D1):D1202-13. PMID:26400175

>  <ROMol>  (46) 
<rdkit.Chem.rdchem.Mol object at 0x7c29060d7610>

>  <Drug_like>  (46) 
True

$$$$
[(Tetrahydro-6alpha-ethenyl-2_2_6-trimethyl-2H-pyran)-3alpha-yl]6-O-D-apio-beta-
     RDKit          2D

 32 34  0  0  0  0  0  0  0  0999 V2000
    4.4235    4.1437    0.0000 C   0  0  0  0  0  0  0  0  0  0  0  0
    2.9463    4.4045    0.0000 C   0  0  0  0  0  0  0  0  0  0  0  0
    1.3647    2.5203    0.0000 C   0  0  0  0  0  0  0  0  0  0  0  0
    3.9103    1.0495    0.0000 C   0  0  0  0  0  0  0  0  0  0  0  0
    0.8511    1.1110    0.0000 C   0  0  0  0  0  0  0  0  0  0  0  0
   -0.6272    0.8515    0.0000 C   0  0  0  0  0  0  0  0  0  0  0  0
   -1.5918    2.0013    0.0000 C   0  0  0  0  0  0  0  0  0  0  0  0
   -1.0781    3.4106    0.0000 C   0  0  0  0  0  0  0  0  0  0  0  0
   -3.2079    4.6418    0.0000 C   0  0  0  0  0  0  0  0  0  0  0  0
   -1.0772    4.9106    0.0000 C   0  0  0  0  0  0  0  0  0  0  0  0
    0.4001    3.6701    0.0000 O   0  0  0  0  0  0  0  0  0  0  0  0
   -3.1734    0.1172    0.0000 O   0  0  0  0  0  0  0  0  0  0  0  0
   -4.6506    0.3780    0.0000 C   0  0  0  0  0  0  0  0  0  0  0  0
   -4.6543   -1.1120    0.0000 C   0  0  0  0  0  0  0  0  0  0  0  0
   -5.9762   -1.8687    0.0000 C   0  0  0  0  0  0  0  0  0  0  0  0
   -7.2743   -1.1054    0.0000 C   0  0  0  0  0  0  0  0  0  0  0  0
   -7.2706    0.3846    0.0000 C   0  0  0  0  0  0  0  0  0  0  0  0
   -7.7798    1.7955    0.0000 C   0  0  0  0  0  0  0  0  0  0  0  0
   -9.2562    2.0600    0.0000 O   0  0  0  0  0  0  0  0  0  0  0  0
   -9.7654    3.4709    0.0000 C   0  0  0  0  0  0  0  0  0  0  0  0
   -9.9625    4.9505    0.0000 C   0  0  0  0  0  0  0  0  0  0  0  0
  -11.4380    5.2203    0.0000 C   0  0  0  0  0  0  0  0  0  0  0  0
  -10.6106    8.0415    0.0000 C   0  0  0  0  0  0  0  0  0  0  0  0
   -9.1530    8.3956    0.0000 O   0  0  0  0  0  0  0  0  0  0  0  0
  -12.1460    3.9063    0.0000 C   0  0  0  0  0  0  0  0  0  0  0  0
  -11.1158    2.8131    0.0000 O   0  0  0  0  0  0  0  0  0  0  0  0
  -12.8255    5.7902    0.0000 O   0  0  0  0  0  0  0  0  0  0  0  0
   -8.4631    4.9925    0.0000 O   0  0  0  0  0  0  0  0  0  0  0  0
   -5.9687    1.1313    0.0000 O   0  0  0  0  0  0  0  0  0  0  0  0
   -8.7504   -0.8386    0.0000 O   0  0  0  0  0  0  0  0  0  0  0  0
   -6.9479   -3.0114    0.0000 O   0  0  0  0  0  0  0  0  0  0  0  0
   -4.1460   -2.5233    0.0000 O   0  0  0  0  0  0  0  0  0  0  0  0
  1  2  2  0
  3  2  1  0
  3  4  1  1
  3  5  1  0
  5  6  1  0
  6  7  1  0
  7  8  1  0
  8  9  1  0
  8 10  1  0
  8 11  1  0
  3 11  1  0
  7 12  1  0
 12 13  1  0
 13 14  1  0
 14 15  1  0
 15 16  1  0
 16 17  1  0
 17 18  1  0
 18 19  1  0
 19 20  1  0
 20 21  1  0
 21 22  1  0
 22 23  1  0
 23 24  1  0
 22 25  1  0
 25 26  1  0
 20 26  1  0
 22 27  1  6
 21 28  1  0
 17 29  1  0
 13 29  1  0
 16 30  1  0
 15 31  1  0
 14 32  1  0
M  END
>  <cdk:Title>  (47) 
[(Tetrahydro-6alpha-ethenyl-2_2_6-trimethyl-2H-pyran)-3alpha-yl]6-O-D-apio-beta-D-furanosyl-beta-D-glucopyranoside

>  <1A2>  (47) 
N

>  <2A6>  (47) 
N

>  <2B6>  (47) 
N

>  <2C8>  (47) 
N

>  <2C9>  (47) 
N

>  <2C19>  (47) 
N

>  <2D6>  (47) 
N

>  <2E1>  (47) 
N

>  <3A4>  (47) 
N

>  <Citation>  (47) 
Nucleic Acids Res. 2018. Jan 4;46(D1):D608-17. PMID:29140435
Nucleic Acids Res. 2018 Jan 4;46(D1):D1074-D1082. PMID:29126136
Nucleic Acids Res., 45:D380-388 (2017).  PMID:27924025
Nucleic Acids Res. 2016 Jan 4;44(D1):D1202-13. PMID:26400175

>  <ROMol>  (47) 
<rdkit.Chem.rdchem.Mol object at 0x7c29060d7680>

>  <Drug_like>  (47) 
True

$$$$
Gibberellin a54
     RDKit          2D

 25 29  0  0  0  0  0  0  0  0999 V2000
   -2.4511    8.4514    0.0000 C   0  0  0  0  0  0  0  0  0  0  0  0
   -3.7511    7.6914    0.0000 C   0  0  0  0  0  0  0  0  0  0  0  0
   -3.7511    6.2114    0.0000 C   0  0  0  0  0  0  0  0  0  0  0  0
   -2.4511    5.4614    0.0000 C   0  0  0  0  0  0  0  0  0  0  0  0
   -1.1711    6.2114    0.0000 C   0  0  0  0  0  0  0  0  0  0  0  0
    0.1289    5.4614    0.0000 C   0  0  0  0  0  0  0  0  0  0  0  0
    1.4089    6.2114    0.0000 C   0  0  0  0  0  0  0  0  0  0  0  0
    1.7089    4.7114    0.0000 C   0  0  0  0  0  0  0  0  0  0  0  0
    3.7089    4.7114    0.0000 C   0  0  0  0  0  0  0  0  0  0  0  0
    4.0089    6.2114    0.0000 C   0  0  0  0  0  0  0  0  0  0  0  0
    4.0089    7.6914    0.0000 C   0  0  0  0  0  0  0  0  0  0  0  0
    2.7089    8.4514    0.0000 C   0  0  0  0  0  0  0  0  0  0  0  0
    1.4089    7.6914    0.0000 C   0  0  0  0  0  0  0  0  0  0  0  0
   -1.1711    7.6914    0.0000 C   0  0  0  0  0  0  0  0  0  0  0  0
   -1.1711    9.1614    0.0000 O   0  0  0  0  0  0  0  0  0  0  0  0
   -2.8611    6.7514    0.0000 C   0  0  0  0  0  0  0  0  0  0  0  0
   -4.3439    6.9784    0.0000 O   0  0  0  0  0  0  0  0  0  0  0  0
    2.7089    5.4614    0.0000 C   0  0  0  0  0  0  0  0  0  0  0  0
    4.6599    3.5514    0.0000 C   0  0  0  0  0  0  0  0  0  0  0  0
   -1.7556    3.2048    0.0000 C   0  0  0  0  0  0  0  0  0  0  0  0
   -3.2334    3.4618    0.0000 O   0  0  0  0  0  0  0  0  0  0  0  0
   -0.9088    0.8951    0.0000 O   0  0  0  0  0  0  0  0  0  0  0  0
   -3.4474    2.6953    0.0000 C   0  0  0  0  0  0  0  0  0  0  0  0
   -5.2284    6.4717    0.0000 O   0  0  0  0  0  0  0  0  0  0  0  0
   -1.1688    9.9601    0.0000 O   0  0  0  0  0  0  0  0  0  0  0  0
  1  2  1  0
  2  3  1  0
  3  4  1  0
  4  5  1  0
  5  6  1  0
  6  7  1  0
  7  8  1  1
  8  9  1  0
  9 10  1  0
 10 11  1  0
 11 12  1  0
 12 13  1  0
  7 13  1  0
 13 14  1  0
  1 14  1  0
  5 14  1  0
 14 15  1  1
 15 16  1  0
  4 16  1  0
 16 17  2  0
 10 18  1  0
  7 18  1  0
  9 19  2  0
  6 20  1  0
 20 21  2  0
 20 22  1  0
  4 23  1  1
  3 24  1  0
  1 25  1  0
M  END
>  <cdk:Title>  (48) 
Gibberellin a54

>  <1A2>  (48) 
N

>  <2A6>  (48) 
N

>  <2B6>  (48) 
N

>  <2C8>  (48) 
N

>  <2C9>  (48) 
N

>  <2C19>  (48) 
N

>  <2D6>  (48) 
N

>  <2E1>  (48) 
N

>  <3A4>  (48) 
N

>  <Citation>  (48) 
Nucleic Acids Res. 2018. Jan 4;46(D1):D608-17. PMID:29140435
Nucleic Acids Res. 2018 Jan 4;46(D1):D1074-D1082. PMID:29126136
Nucleic Acids Res., 45:D380-388 (2017).  PMID:27924025
Nucleic Acids Res. 2016 Jan 4;44(D1):D1202-13. PMID:26400175

>  <ROMol>  (48) 
<rdkit.Chem.rdchem.Mol object at 0x7c29060d76f0>

>  <Drug_like>  (48) 
True

$$$$
Pogostol
     RDKit          2D

 16 17  0  0  0  0  0  0  0  0999 V2000
   -4.7050   -3.1333    0.0000 C   0  0  0  0  0  0  0  0  0  0  0  0
   -4.2607   -1.7006    0.0000 C   0  0  0  0  0  0  0  0  0  0  0  0
   -5.2793   -0.5995    0.0000 C   0  0  0  0  0  0  0  0  0  0  0  0
   -1.8615   -1.1569    0.0000 C   0  0  0  0  0  0  0  0  0  0  0  0
   -2.5115    0.1931    0.0000 C   0  0  0  0  0  0  0  0  0  0  0  0
   -1.8615    1.5431    0.0000 C   0  0  0  0  0  0  0  0  0  0  0  0
   -0.4015    1.8831    0.0000 C   0  0  0  0  0  0  0  0  0  0  0  0
    1.8988    3.7140    0.0000 C   0  0  0  0  0  0  0  0  0  0  0  0
    0.7685    0.9431    0.0000 C   0  0  0  0  0  0  0  0  0  0  0  0
    2.1985    1.4031    0.0000 C   0  0  0  0  0  0  0  0  0  0  0  0
    3.0785    0.1931    0.0000 C   0  0  0  0  0  0  0  0  0  0  0  0
    2.1985   -1.0169    0.0000 C   0  0  0  0  0  0  0  0  0  0  0  0
    1.2019   -3.2660    0.0000 C   0  0  0  0  0  0  0  0  0  0  0  0
    0.7685   -0.5569    0.0000 C   0  0  0  0  0  0  0  0  0  0  0  0
   -0.4015   -1.4969    0.0000 C   0  0  0  0  0  0  0  0  0  0  0  0
   -1.0547    3.2335    0.0000 O   0  0  0  0  0  0  0  0  0  0  0  0
  1  2  2  0
  2  3  1  0
  2  4  1  0
  4  5  1  0
  5  6  1  0
  6  7  1  0
  7  8  1  1
  7  9  1  0
  9 10  1  0
 10 11  1  0
 11 12  1  0
 12 13  1  0
 12 14  1  0
  9 14  1  0
 14 15  1  0
  4 15  1  0
  7 16  1  0
M  END
>  <cdk:Title>  (49) 
Pogostol

>  <1A2>  (49) 
N

>  <2A6>  (49) 
N

>  <2B6>  (49) 
N

>  <2C8>  (49) 
N

>  <2C9>  (49) 
N

>  <2C19>  (49) 
N

>  <2D6>  (49) 
N

>  <2E1>  (49) 
N

>  <3A4>  (49) 
N

>  <Citation>  (49) 
Nucleic Acids Res. 2018. Jan 4;46(D1):D608-17. PMID:29140435
Nucleic Acids Res. 2018 Jan 4;46(D1):D1074-D1082. PMID:29126136
Nucleic Acids Res., 45:D380-388 (2017).  PMID:27924025
Nucleic Acids Res. 2016 Jan 4;44(D1):D1202-13. PMID:26400175

>  <ROMol>  (49) 
<rdkit.Chem.rdchem.Mol object at 0x7c29060d7760>

>  <Drug_like>  (49) 
True

$$$$
Peg/ppg butyl ether
     RDKit          2D

 17 16  0  0  0  0  0  0  0  0999 V2000
    1.1135   -3.0000    0.0000 C   0  0  0  0  0  0  0  0  0  0  0  0
    2.4125   -2.2500    0.0000 C   0  0  0  0  0  0  0  0  0  0  0  0
    4.1272   -3.2400    0.0000 C   0  0  0  0  0  0  0  0  0  0  0  0
    5.4263   -2.4900    0.0000 C   0  0  0  0  0  0  0  0  0  0  0  0
    7.1410   -3.4800    0.0000 O   0  0  0  0  0  0  0  0  0  0  0  0
    8.4401   -2.7300    0.0000 C   0  0  0  0  0  0  0  0  0  0  0  0
    9.7391   -3.4800    0.0000 C   0  0  0  0  0  0  0  0  0  0  0  0
   11.4538   -2.4900    0.0000 O   0  0  0  0  0  0  0  0  0  0  0  0
   12.7529   -3.2400    0.0000 C   0  0  0  0  0  0  0  0  0  0  0  0
   14.0519   -2.4900    0.0000 C   0  0  0  0  0  0  0  0  0  0  0  0
   15.0161   -1.3409    0.0000 C   0  0  0  0  0  0  0  0  0  0  0  0
   15.7666   -3.4800    0.0000 O   0  0  0  0  0  0  0  0  0  0  0  0
   18.3127   -2.0100    0.0000 C   0  0  0  0  0  0  0  0  0  0  0  0
   19.6118   -2.7600    0.0000 C   0  0  0  0  0  0  0  0  0  0  0  0
   20.9108   -2.0100    0.0000 C   0  0  0  0  0  0  0  0  0  0  0  0
   20.9108   -0.5100    0.0000 O   0  0  0  0  0  0  0  0  0  0  0  0
   22.2099    0.2400    0.0000 C   0  0  0  0  0  0  0  0  0  0  0  0
  1  2  1  0
  2  3  1  0
  3  4  1  0
  4  5  1  0
  5  6  1  0
  6  7  1  0
  7  8  1  0
  8  9  1  0
  9 10  1  0
 10 11  1  0
 10 12  1  0
 12 13  1  0
 13 14  1  0
 14 15  1  0
 15 16  1  0
 16 17  1  0
M  END
>  <cdk:Title>  (50) 
Peg/ppg butyl ether

>  <1A2>  (50) 
N

>  <2A6>  (50) 
N

>  <2B6>  (50) 
N

>  <2C8>  (50) 
N

>  <2C9>  (50) 
N

>  <2C19>  (50) 
N

>  <2D6>  (50) 
N

>  <2E1>  (50) 
N

>  <3A4>  (50) 
N

>  <Citation>  (50) 
Nucleic Acids Res. 2018. Jan 4;46(D1):D608-17. PMID:29140435
Nucleic Acids Res. 2018 Jan 4;46(D1):D1074-D1082. PMID:29126136
Nucleic Acids Res., 45:D380-388 (2017).  PMID:27924025
Nucleic Acids Res. 2016 Jan 4;44(D1):D1202-13. PMID:26400175

>  <ROMol>  (50) 
<rdkit.Chem.rdchem.Mol object at 0x7c29060d7840>

>  <Drug_like>  (50) 
True

$$$$
Camelliagenin a
     RDKit          2D

 34 38  0  0  0  0  0  0  0  0999 V2000
    1.6953    7.4865    0.0000 C   0  0  0  0  0  0  0  0  0  0  0  0
    0.1143    5.6019    0.0000 C   0  0  0  0  0  0  0  0  0  0  0  0
   -1.7753    7.8542    0.0000 C   0  0  0  0  0  0  0  0  0  0  0  0
   -1.1857    4.8519    0.0000 C   0  0  0  0  0  0  0  0  0  0  0  0
   -1.1857    3.3519    0.0000 C   0  0  0  0  0  0  0  0  0  0  0  0
   -2.4857    2.6019    0.0000 C   0  0  0  0  0  0  0  0  0  0  0  0
   -3.7857    3.3519    0.0000 C   0  0  0  0  0  0  0  0  0  0  0  0
   -5.0757    2.6019    0.0000 C   0  0  0  0  0  0  0  0  0  0  0  0
   -5.0757    1.1019    0.0000 C   0  0  0  0  0  0  0  0  0  0  0  0
   -6.3757    0.3519    0.0000 C   0  0  0  0  0  0  0  0  0  0  0  0
   -6.3757    3.2919    0.0000 C   0  0  0  0  0  0  0  0  0  0  0  0
   -7.6757    1.1019    0.0000 C   0  0  0  0  0  0  0  0  0  0  0  0
   -8.9757    0.3519    0.0000 C   0  0  0  0  0  0  0  0  0  0  0  0
   -8.9757   -1.1481    0.0000 C   0  0  0  0  0  0  0  0  0  0  0  0
   -7.6757   -1.8981    0.0000 C   0  0  0  0  0  0  0  0  0  0  0  0
   -9.5653   -4.1505    0.0000 C   0  0  0  0  0  0  0  0  0  0  0  0
   -5.7862   -4.1505    0.0000 C   0  0  0  0  0  0  0  0  0  0  0  0
   -6.3757   -1.1481    0.0000 C   0  0  0  0  0  0  0  0  0  0  0  0
   -5.0757   -1.8981    0.0000 C   0  0  0  0  0  0  0  0  0  0  0  0
   -3.7857   -1.1481    0.0000 C   0  0  0  0  0  0  0  0  0  0  0  0
   -3.7857    0.3519    0.0000 C   0  0  0  0  0  0  0  0  0  0  0  0
   -1.5339   -1.5383    0.0000 C   0  0  0  0  0  0  0  0  0  0  0  0
   -2.4857    1.1019    0.0000 C   0  0  0  0  0  0  0  0  0  0  0  0
   -2.4857   -1.8381    0.0000 C   0  0  0  0  0  0  0  0  0  0  0  0
   -1.1857    0.3519    0.0000 C   0  0  0  0  0  0  0  0  0  0  0  0
    0.1143    1.1019    0.0000 C   0  0  0  0  0  0  0  0  0  0  0  0
    0.1143    2.6019    0.0000 C   0  0  0  0  0  0  0  0  0  0  0  0
    2.6602    1.1315    0.0000 C   0  0  0  0  0  0  0  0  0  0  0  0
    5.2065    2.6011    0.0000 O   0  0  0  0  0  0  0  0  0  0  0  0
    1.4143    3.3519    0.0000 C   0  0  0  0  0  0  0  0  0  0  0  0
    1.4143    4.8519    0.0000 C   0  0  0  0  0  0  0  0  0  0  0  0
    1.9270    1.9422    0.0000 O   0  0  0  0  0  0  0  0  0  0  0  0
    1.1192   -1.6610    0.0000 O   0  0  0  0  0  0  0  0  0  0  0  0
  -10.4530   -0.8878    0.0000 O   0  0  0  0  0  0  0  0  0  0  0  0
  1  2  1  0
  2  3  1  0
  2  4  1  0
  4  5  1  0
  5  6  1  0
  6  7  2  0
  7  8  1  0
  8  9  1  0
  9 10  1  0
 10 11  1  6
 10 12  1  0
 12 13  1  0
 13 14  1  0
 14 15  1  0
 15 16  1  0
 15 17  1  0
 15 18  1  0
 10 18  1  0
 18 19  1  0
 19 20  1  0
 20 21  1  0
  9 21  1  0
 21 22  1  6
 21 23  1  0
  6 23  1  0
 23 24  1  1
 23 25  1  0
 25 26  1  0
 26 27  1  0
  5 27  1  0
 27 28  1  6
 28 29  1  0
 27 30  1  0
 30 31  1  0
  2 31  1  0
 30 32  1  0
 26 33  1  0
 14 34  1  0
M  END
>  <cdk:Title>  (51) 
Camelliagenin a

>  <1A2>  (51) 
N

>  <2A6>  (51) 
N

>  <2B6>  (51) 
N

>  <2C8>  (51) 
N

>  <2C9>  (51) 
N

>  <2C19>  (51) 
N

>  <2D6>  (51) 
N

>  <2E1>  (51) 
N

>  <3A4>  (51) 
N

>  <Citation>  (51) 
Nucleic Acids Res. 2018. Jan 4;46(D1):D608-17. PMID:29140435
Nucleic Acids Res. 2018 Jan 4;46(D1):D1074-D1082. PMID:29126136
Nucleic Acids Res., 45:D380-388 (2017).  PMID:27924025
Nucleic Acids Res. 2016 Jan 4;44(D1):D1202-13. PMID:26400175

>  <ROMol>  (51) 
<rdkit.Chem.rdchem.Mol object at 0x7c29060d7920>

>  <Drug_like>  (51) 
True

$$$$
Pristanoylglycine
     RDKit          2D

 25 24  0  0  0  0  0  0  0  0999 V2000
    4.7367   -8.4941    0.0000 C   0  0  0  0  0  0  0  0  0  0  0  0
    6.2067  -11.0402    0.0000 C   0  0  0  0  0  0  0  0  0  0  0  0
    8.1867  -11.0402    0.0000 C   0  0  0  0  0  0  0  0  0  0  0  0
    9.6567  -13.5863    0.0000 C   0  0  0  0  0  0  0  0  0  0  0  0
   11.6367  -13.5863    0.0000 C   0  0  0  0  0  0  0  0  0  0  0  0
   12.3867  -14.8853    0.0000 C   0  0  0  0  0  0  0  0  0  0  0  0
   15.3267  -14.8853    0.0000 C   0  0  0  0  0  0  0  0  0  0  0  0
   14.8162  -17.7807    0.0000 C   0  0  0  0  0  0  0  0  0  0  0  0
   16.0767  -13.5863    0.0000 C   0  0  0  0  0  0  0  0  0  0  0  0
   17.5767  -13.5863    0.0000 N   0  0  0  0  0  0  0  0  0  0  0  0
   18.3267  -12.2873    0.0000 C   0  0  0  0  0  0  0  0  0  0  0  0
   19.8267  -12.2873    0.0000 C   0  0  0  0  0  0  0  0  0  0  0  0
   20.5767  -10.9882    0.0000 O   0  0  0  0  0  0  0  0  0  0  0  0
   20.5767  -13.5863    0.0000 O   0  0  0  0  0  0  0  0  0  0  0  0
   15.3267  -12.2873    0.0000 O   0  0  0  0  0  0  0  0  0  0  0  0
    7.9263   -9.5630    0.0000 C   0  0  0  0  0  0  0  0  0  0  0  0
    2.7567   -8.4941    0.0000 C   0  0  0  0  0  0  0  0  0  0  0  0
    1.2867   -5.9480    0.0000 C   0  0  0  0  0  0  0  0  0  0  0  0
   -1.1733   -5.9480    0.0000 C   0  0  0  0  0  0  0  0  0  0  0  0
   -2.6433   -3.4019    0.0000 C   0  0  0  0  0  0  0  0  0  0  0  0
   -4.1433   -3.4019    0.0000 C   0  0  0  0  0  0  0  0  0  0  0  0
   -5.3733   -1.2714    0.0000 C   0  0  0  0  0  0  0  0  0  0  0  0
   -6.8733   -1.2714    0.0000 C   0  0  0  0  0  0  0  0  0  0  0  0
   -5.6337    0.2058    0.0000 C   0  0  0  0  0  0  0  0  0  0  0  0
    1.0263   -4.4708    0.0000 C   0  0  0  0  0  0  0  0  0  0  0  0
  1  2  1  0
  2  3  1  0
  3  4  1  0
  4  5  1  0
  5  6  1  0
  6  7  1  0
  7  8  1  0
  7  9  1  0
  9 10  1  0
 10 11  1  0
 11 12  1  0
 12 13  1  0
 12 14  2  0
  9 15  2  0
  3 16  1  0
  1 17  1  0
 17 18  1  0
 18 19  1  0
 19 20  1  0
 20 21  1  0
 21 22  1  0
 22 23  1  0
 22 24  1  0
 18 25  1  0
M  END
>  <cdk:Title>  (52) 
Pristanoylglycine

>  <1A2>  (52) 
N

>  <2A6>  (52) 
N

>  <2B6>  (52) 
N

>  <2C8>  (52) 
N

>  <2C9>  (52) 
N

>  <2C19>  (52) 
N

>  <2D6>  (52) 
N

>  <2E1>  (52) 
N

>  <3A4>  (52) 
N

>  <Citation>  (52) 
Nucleic Acids Res. 2018. Jan 4;46(D1):D608-17. PMID:29140435
Nucleic Acids Res. 2018 Jan 4;46(D1):D1074-D1082. PMID:29126136
Nucleic Acids Res., 45:D380-388 (2017).  PMID:27924025
Nucleic Acids Res. 2016 Jan 4;44(D1):D1202-13. PMID:26400175

>  <ROMol>  (52) 
<rdkit.Chem.rdchem.Mol object at 0x7c29060d7a70>

>  <Drug_like>  (52) 
True

$$$$
27-Deoxy-5alpha-cyprinol
     RDKit          2D

 31 34  0  0  0  0  0  0  0  0999 V2000
    7.3480    7.0093    0.0000 C   0  0  0  0  0  0  0  0  0  0  0  0
    8.9270    5.1230    0.0000 C   0  0  0  0  0  0  0  0  0  0  0  0
    7.6271    4.3745    0.0000 C   0  0  0  0  0  0  0  0  0  0  0  0
    7.6243    1.9145    0.0000 C   0  0  0  0  0  0  0  0  0  0  0  0
    5.9084    0.9265    0.0000 C   0  0  0  0  0  0  0  0  0  0  0  0
    5.9061   -1.0535    0.0000 C   0  0  0  0  0  0  0  0  0  0  0  0
    6.9085   -3.8174    0.0000 C   0  0  0  0  0  0  0  0  0  0  0  0
    3.3583   -2.5206    0.0000 C   0  0  0  0  0  0  0  0  0  0  0  0
    2.7449   -1.1471    0.0000 C   0  0  0  0  0  0  0  0  0  0  0  0
    1.2567   -1.3007    0.0000 C   0  0  0  0  0  0  0  0  0  0  0  0
    0.9367   -2.7684    0.0000 C   0  0  0  0  0  0  0  0  0  0  0  0
   -0.3596   -3.5076    0.0000 C   0  0  0  0  0  0  0  0  0  0  0  0
   -0.3635   -5.0084    0.0000 C   0  0  0  0  0  0  0  0  0  0  0  0
    0.9338   -5.7614    0.0000 C   0  0  0  0  0  0  0  0  0  0  0  0
    2.2350   -5.0136    0.0000 C   0  0  0  0  0  0  0  0  0  0  0  0
    2.2340   -3.5214    0.0000 C   0  0  0  0  0  0  0  0  0  0  0  0
    3.6027   -4.1349    0.0000 C   0  0  0  0  0  0  0  0  0  0  0  0
    3.7123   -4.7534    0.0000 O   0  0  0  0  0  0  0  0  0  0  0  0
   -1.6648   -5.7562    0.0000 C   0  0  0  0  0  0  0  0  0  0  0  0
    0.5830   -7.6512    0.0000 C   0  0  0  0  0  0  0  0  0  0  0  0
   -1.6688   -7.2570    0.0000 C   0  0  0  0  0  0  0  0  0  0  0  0
   -2.9700   -8.0049    0.0000 C   0  0  0  0  0  0  0  0  0  0  0  0
   -4.2673   -7.2519    0.0000 C   0  0  0  0  0  0  0  0  0  0  0  0
   -4.2633   -5.7510    0.0000 C   0  0  0  0  0  0  0  0  0  0  0  0
   -2.9621   -5.0032    0.0000 C   0  0  0  0  0  0  0  0  0  0  0  0
   -2.9581   -3.5024    0.0000 C   0  0  0  0  0  0  0  0  0  0  0  0
   -1.6569   -2.7546    0.0000 C   0  0  0  0  0  0  0  0  0  0  0  0
   -2.6186   -1.6035    0.0000 O   0  0  0  0  0  0  0  0  0  0  0  0
   -4.7837   -8.6601    0.0000 O   0  0  0  0  0  0  0  0  0  0  0  0
   10.2252    4.3715    0.0000 C   0  0  0  0  0  0  0  0  0  0  0  0
   10.2235    2.8715    0.0000 O   0  0  0  0  0  0  0  0  0  0  0  0
  1  2  1  0
  2  3  1  0
  3  4  1  0
  4  5  1  0
  5  6  1  0
  6  7  1  0
  6  8  1  0
  8  9  1  0
  9 10  1  0
 10 11  1  0
 11 12  1  0
 12 13  1  0
 13 14  1  0
 14 15  1  0
 15 16  1  0
  8 16  1  0
 11 16  1  0
 16 17  1  6
 15 18  1  0
 13 19  1  0
 19 20  1  6
 19 21  1  0
 21 22  1  0
 22 23  1  0
 23 24  1  0
 24 25  1  0
 19 25  1  0
 25 26  1  0
 26 27  1  0
 12 27  1  0
 27 28  1  0
 23 29  1  0
  2 30  1  0
 30 31  1  0
M  END
>  <cdk:Title>  (53) 
27-Deoxy-5alpha-cyprinol

>  <1A2>  (53) 
N

>  <2A6>  (53) 
N

>  <2B6>  (53) 
N

>  <2C8>  (53) 
N

>  <2C9>  (53) 
N

>  <2C19>  (53) 
N

>  <2D6>  (53) 
N

>  <2E1>  (53) 
N

>  <3A4>  (53) 
N

>  <Citation>  (53) 
Nucleic Acids Res. 2018. Jan 4;46(D1):D608-17. PMID:29140435
Nucleic Acids Res. 2018 Jan 4;46(D1):D1074-D1082. PMID:29126136
Nucleic Acids Res., 45:D380-388 (2017).  PMID:27924025
Nucleic Acids Res. 2016 Jan 4;44(D1):D1202-13. PMID:26400175

>  <ROMol>  (53) 
<rdkit.Chem.rdchem.Mol object at 0x7c29060d7ae0>

>  <Drug_like>  (53) 
True

$$$$
Heliantriol C
     RDKit          2D

 33 37  0  0  0  0  0  0  0  0999 V2000
   -6.8823    2.0397    0.0000 C   0  0  0  0  0  0  0  0  0  0  0  0
   -6.8823    0.5397    0.0000 C   0  0  0  0  0  0  0  0  0  0  0  0
   -5.5824   -0.2103    0.0000 C   0  0  0  0  0  0  0  0  0  0  0  0
   -4.2824    0.5397    0.0000 C   0  0  0  0  0  0  0  0  0  0  0  0
   -4.2824    2.0397    0.0000 C   0  0  0  0  0  0  0  0  0  0  0  0
   -5.5824    2.7897    0.0000 C   0  0  0  0  0  0  0  0  0  0  0  0
   -2.9824    2.7897    0.0000 C   0  0  0  0  0  0  0  0  0  0  0  0
   -1.6924    2.0397    0.0000 C   0  0  0  0  0  0  0  0  0  0  0  0
   -1.6924    0.5397    0.0000 C   0  0  0  0  0  0  0  0  0  0  0  0
   -2.9824   -0.2103    0.0000 C   0  0  0  0  0  0  0  0  0  0  0  0
   -0.3924    2.7897    0.0000 C   0  0  0  0  0  0  0  0  0  0  0  0
   -0.3924    4.2897    0.0000 C   0  0  0  0  0  0  0  0  0  0  0  0
   -1.6924    5.0397    0.0000 C   0  0  0  0  0  0  0  0  0  0  0  0
   -2.9824    4.2897    0.0000 C   0  0  0  0  0  0  0  0  0  0  0  0
    0.9076    5.0397    0.0000 C   0  0  0  0  0  0  0  0  0  0  0  0
    2.2076    4.2897    0.0000 C   0  0  0  0  0  0  0  0  0  0  0  0
    2.2076    2.7897    0.0000 C   0  0  0  0  0  0  0  0  0  0  0  0
    0.9076    2.0397    0.0000 C   0  0  0  0  0  0  0  0  0  0  0  0
    3.2126    0.0268    0.0000 O   0  0  0  0  0  0  0  0  0  0  0  0
    3.5076    5.0397    0.0000 C   0  0  0  0  0  0  0  0  0  0  0  0
    3.5076    6.5397    0.0000 C   0  0  0  0  0  0  0  0  0  0  0  0
    2.2076    7.2897    0.0000 C   0  0  0  0  0  0  0  0  0  0  0  0
    0.9076    6.5397    0.0000 C   0  0  0  0  0  0  0  0  0  0  0  0
    0.3949    7.9493    0.0000 C   0  0  0  0  0  0  0  0  0  0  0  0
    2.2076    9.7497    0.0000 C   0  0  0  0  0  0  0  0  0  0  0  0
    4.0204    3.6300    0.0000 O   0  0  0  0  0  0  0  0  0  0  0  0
    4.7535    2.8193    0.0000 C   0  0  0  0  0  0  0  0  0  0  0  0
   -0.9029   -0.1057    0.0000 C   0  0  0  0  0  0  0  0  0  0  0  0
    0.1971   -0.2128    0.0000 C   0  0  0  0  0  0  0  0  0  0  0  0
   -4.2824    4.9797    0.0000 C   0  0  0  0  0  0  0  0  0  0  0  0
   -7.4719   -2.4627    0.0000 C   0  0  0  0  0  0  0  0  0  0  0  0
   -5.1554   -2.6330    0.0000 C   0  0  0  0  0  0  0  0  0  0  0  0
   -8.3596    0.8000    0.0000 O   0  0  0  0  0  0  0  0  0  0  0  0
  1  2  1  0
  2  3  1  0
  3  4  1  0
  4  5  1  0
  5  6  1  0
  1  6  1  0
  5  7  1  0
  7  8  1  0
  8  9  1  0
  9 10  1  0
  4 10  1  0
  8 11  1  0
 11 12  1  0
 12 13  1  0
 13 14  1  0
  7 14  1  0
 12 15  1  0
 15 16  1  0
 16 17  1  0
 17 18  1  0
 11 18  1  0
 17 19  1  0
 16 20  1  0
 20 21  1  0
 21 22  2  0
 22 23  1  0
 15 23  1  0
 23 24  1  0
 22 25  1  0
 20 26  1  0
 16 27  1  6
 11 28  1  1
  8 29  1  6
  5 30  1  6
  3 31  1  0
  3 32  1  0
  2 33  1  0
M  END
>  <cdk:Title>  (54) 
Heliantriol C

>  <1A2>  (54) 
N

>  <2A6>  (54) 
N

>  <2B6>  (54) 
N

>  <2C8>  (54) 
N

>  <2C9>  (54) 
N

>  <2C19>  (54) 
N

>  <2D6>  (54) 
N

>  <2E1>  (54) 
N

>  <3A4>  (54) 
N

>  <Citation>  (54) 
Nucleic Acids Res. 2018. Jan 4;46(D1):D608-17. PMID:29140435
Nucleic Acids Res. 2018 Jan 4;46(D1):D1074-D1082. PMID:29126136
Nucleic Acids Res., 45:D380-388 (2017).  PMID:27924025
Nucleic Acids Res. 2016 Jan 4;44(D1):D1202-13. PMID:26400175

>  <ROMol>  (54) 
<rdkit.Chem.rdchem.Mol object at 0x7c29060d7b50>

>  <Drug_like>  (54) 
True

$$$$
2_20-Dihydroxyursonic acid
     RDKit          2D

 35 39  0  0  0  0  0  0  0  0999 V2000
   -6.8023    0.5712    0.0000 C   0  0  0  0  0  0  0  0  0  0  0  0
   -8.1023   -0.1788    0.0000 C   0  0  0  0  0  0  0  0  0  0  0  0
   -8.1023   -1.6788    0.0000 C   0  0  0  0  0  0  0  0  0  0  0  0
   -6.8023   -2.4288    0.0000 C   0  0  0  0  0  0  0  0  0  0  0  0
   -5.5023   -1.6788    0.0000 C   0  0  0  0  0  0  0  0  0  0  0  0
   -4.2023   -2.4288    0.0000 C   0  0  0  0  0  0  0  0  0  0  0  0
   -2.9123   -1.6788    0.0000 C   0  0  0  0  0  0  0  0  0  0  0  0
   -2.9123   -0.1788    0.0000 C   0  0  0  0  0  0  0  0  0  0  0  0
   -4.2023    0.5712    0.0000 C   0  0  0  0  0  0  0  0  0  0  0  0
   -5.5023   -0.1788    0.0000 C   0  0  0  0  0  0  0  0  0  0  0  0
   -4.9918    2.7166    0.0000 C   0  0  0  0  0  0  0  0  0  0  0  0
   -4.2023    2.0712    0.0000 C   0  0  0  0  0  0  0  0  0  0  0  0
   -2.9123    2.8212    0.0000 C   0  0  0  0  0  0  0  0  0  0  0  0
   -1.6123    2.0712    0.0000 C   0  0  0  0  0  0  0  0  0  0  0  0
   -1.6123    0.5712    0.0000 C   0  0  0  0  0  0  0  0  0  0  0  0
   -0.3123   -0.1788    0.0000 C   0  0  0  0  0  0  0  0  0  0  0  0
    0.9877    0.5712    0.0000 C   0  0  0  0  0  0  0  0  0  0  0  0
    0.9877    2.0712    0.0000 C   0  0  0  0  0  0  0  0  0  0  0  0
   -0.3123    2.8212    0.0000 C   0  0  0  0  0  0  0  0  0  0  0  0
   -0.3123    4.3212    0.0000 C   0  0  0  0  0  0  0  0  0  0  0  0
    0.9877    5.0712    0.0000 C   0  0  0  0  0  0  0  0  0  0  0  0
    2.2877    4.3212    0.0000 C   0  0  0  0  0  0  0  0  0  0  0  0
    2.2877    2.8212    0.0000 C   0  0  0  0  0  0  0  0  0  0  0  0
    2.8772    7.3236    0.0000 O   0  0  0  0  0  0  0  0  0  0  0  0
    0.0236    6.2204    0.0000 C   0  0  0  0  0  0  0  0  0  0  0  0
   -1.3173    7.0841    0.0000 C   0  0  0  0  0  0  0  0  0  0  0  0
    3.5335    0.6008    0.0000 C   0  0  0  0  0  0  0  0  0  0  0  0
    4.8327    1.3506    0.0000 O   0  0  0  0  0  0  0  0  0  0  0  0
    3.5333   -0.8992    0.0000 O   0  0  0  0  0  0  0  0  0  0  0  0
   -2.1229   -2.3241    0.0000 C   0  0  0  0  0  0  0  0  0  0  0  0
   -0.3665   -1.6492    0.0000 C   0  0  0  0  0  0  0  0  0  0  0  0
   -7.7664   -3.5779    0.0000 C   0  0  0  0  0  0  0  0  0  0  0  0
   -5.9612   -4.7405    0.0000 C   0  0  0  0  0  0  0  0  0  0  0  0
   -9.4013   -2.4290    0.0000 O   0  0  0  0  0  0  0  0  0  0  0  0
   -8.6151    1.2309    0.0000 O   0  0  0  0  0  0  0  0  0  0  0  0
  1  2  1  0
  2  3  1  0
  3  4  1  0
  4  5  1  0
  5  6  1  0
  6  7  1  0
  7  8  1  0
  8  9  1  0
  9 10  1  0
  1 10  1  0
  5 10  1  0
 10 11  1  1
  9 12  1  0
 12 13  1  0
 13 14  2  0
 14 15  1  0
  8 15  1  0
 15 16  1  0
 16 17  1  0
 17 18  1  0
 18 19  1  0
 14 19  1  0
 19 20  1  0
 20 21  1  0
 21 22  1  0
 22 23  1  0
 18 23  1  0
 21 24  1  0
 21 25  1  6
 20 26  1  0
 18 27  1  1
 27 28  1  0
 27 29  2  0
 15 30  1  6
  8 31  1  1
  4 32  1  0
  4 33  1  0
  3 34  2  0
  2 35  1  0
M  END
>  <cdk:Title>  (55) 
2_20-Dihydroxyursonic acid

>  <1A2>  (55) 
N

>  <2A6>  (55) 
N

>  <2B6>  (55) 
N

>  <2C8>  (55) 
N

>  <2C9>  (55) 
N

>  <2C19>  (55) 
N

>  <2D6>  (55) 
N

>  <2E1>  (55) 
N

>  <3A4>  (55) 
N

>  <Citation>  (55) 
Nucleic Acids Res. 2018. Jan 4;46(D1):D608-17. PMID:29140435
Nucleic Acids Res. 2018 Jan 4;46(D1):D1074-D1082. PMID:29126136
Nucleic Acids Res., 45:D380-388 (2017).  PMID:27924025
Nucleic Acids Res. 2016 Jan 4;44(D1):D1202-13. PMID:26400175

>  <ROMol>  (55) 
<rdkit.Chem.rdchem.Mol object at 0x7c29060d7bc0>

>  <Drug_like>  (55) 
True

$$$$
3alpha_4beta_12alpha-Trihydroxy-5beta-cholan-24-Oic Acid
     RDKit          2D

 29 32  0  0  0  0  0  0  0  0999 V2000
    4.8800    1.9332    0.0000 C   0  0  0  0  0  0  0  0  0  0  0  0
    5.8434    0.7835    0.0000 C   0  0  0  0  0  0  0  0  0  0  0  0
    7.5575   -0.2076    0.0000 C   0  0  0  0  0  0  0  0  0  0  0  0
    8.8570    0.5415    0.0000 C   0  0  0  0  0  0  0  0  0  0  0  0
   10.1556   -0.2093    0.0000 C   0  0  0  0  0  0  0  0  0  0  0  0
   11.4551    0.5398    0.0000 O   0  0  0  0  0  0  0  0  0  0  0  0
   10.1546   -1.7093    0.0000 O   0  0  0  0  0  0  0  0  0  0  0  0
    3.2964   -0.6848    0.0000 C   0  0  0  0  0  0  0  0  0  0  0  0
    4.1764   -1.8948    0.0000 C   0  0  0  0  0  0  0  0  0  0  0  0
    3.2964   -3.1048    0.0000 C   0  0  0  0  0  0  0  0  0  0  0  0
    1.8664   -2.6448    0.0000 C   0  0  0  0  0  0  0  0  0  0  0  0
    0.5664   -3.3948    0.0000 C   0  0  0  0  0  0  0  0  0  0  0  0
    0.5664   -4.8948    0.0000 C   0  0  0  0  0  0  0  0  0  0  0  0
   -0.7336   -5.6448    0.0000 C   0  0  0  0  0  0  0  0  0  0  0  0
   -2.0336   -4.8948    0.0000 C   0  0  0  0  0  0  0  0  0  0  0  0
   -3.3336   -5.6448    0.0000 C   0  0  0  0  0  0  0  0  0  0  0  0
   -4.6336   -4.8948    0.0000 C   0  0  0  0  0  0  0  0  0  0  0  0
   -4.6336   -3.3948    0.0000 C   0  0  0  0  0  0  0  0  0  0  0  0
   -3.3336   -2.6448    0.0000 C   0  0  0  0  0  0  0  0  0  0  0  0
   -2.0336   -3.3948    0.0000 C   0  0  0  0  0  0  0  0  0  0  0  0
   -0.7336   -2.6448    0.0000 C   0  0  0  0  0  0  0  0  0  0  0  0
   -0.7336   -1.1448    0.0000 C   0  0  0  0  0  0  0  0  0  0  0  0
    0.5664   -0.3948    0.0000 C   0  0  0  0  0  0  0  0  0  0  0  0
    1.5304    0.7544    0.0000 O   0  0  0  0  0  0  0  0  0  0  0  0
    1.8664   -1.1448    0.0000 C   0  0  0  0  0  0  0  0  0  0  0  0
    2.1267    1.3014    0.0000 C   0  0  0  0  0  0  0  0  0  0  0  0
   -1.6898   -1.4449    0.0000 C   0  0  0  0  0  0  0  0  0  0  0  0
   -6.1109   -4.6345    0.0000 O   0  0  0  0  0  0  0  0  0  0  0  0
   -4.2977   -6.7940    0.0000 O   0  0  0  0  0  0  0  0  0  0  0  0
  1  2  1  0
  2  3  1  0
  3  4  1  0
  4  5  1  0
  5  6  1  0
  5  7  2  0
  2  8  1  0
  8  9  1  0
  9 10  1  0
 10 11  1  0
 11 12  1  0
 12 13  1  0
 13 14  1  0
 14 15  1  0
 15 16  1  0
 16 17  1  0
 17 18  1  0
 18 19  1  0
 19 20  1  0
 15 20  1  0
 20 21  1  0
 12 21  1  0
 21 22  1  0
 22 23  1  0
 23 24  1  0
 23 25  1  0
  8 25  1  0
 11 25  1  0
 25 26  1  1
 20 27  1  1
 17 28  1  0
 16 29  1  0
M  END
>  <cdk:Title>  (56) 
3alpha_4beta_12alpha-Trihydroxy-5beta-cholan-24-Oic Acid

>  <1A2>  (56) 
N

>  <2A6>  (56) 
N

>  <2B6>  (56) 
N

>  <2C8>  (56) 
N

>  <2C9>  (56) 
N

>  <2C19>  (56) 
N

>  <2D6>  (56) 
N

>  <2E1>  (56) 
N

>  <3A4>  (56) 
N

>  <Citation>  (56) 
Nucleic Acids Res. 2018. Jan 4;46(D1):D608-17. PMID:29140435
Nucleic Acids Res. 2018 Jan 4;46(D1):D1074-D1082. PMID:29126136
Nucleic Acids Res., 45:D380-388 (2017).  PMID:27924025
Nucleic Acids Res. 2016 Jan 4;44(D1):D1202-13. PMID:26400175

>  <ROMol>  (56) 
<rdkit.Chem.rdchem.Mol object at 0x7c29060d7ca0>

>  <Drug_like>  (56) 
True

$$$$
2-{2-[(2Z)-pent-2-en-1-yl]-3-{[(2R_3R_4S_5S_6R)-3_4_5-trihydroxy-6-(hydroxymethy
     RDKit          2D

 26 27  0  0  0  0  0  0  0  0999 V2000
    0.7526    4.9232    0.0000 C   0  0  0  0  0  0  0  0  0  0  0  0
    1.1634    6.3659    0.0000 C   0  0  0  0  0  0  0  0  0  0  0  0
    2.6550    6.4194    0.0000 C   0  0  0  0  0  0  0  0  0  0  0  0
    5.0408    7.0191    0.0000 C   0  0  0  0  0  0  0  0  0  0  0  0
    5.4516    8.4617    0.0000 C   0  0  0  0  0  0  0  0  0  0  0  0
    6.9063    8.8274    0.0000 O   0  0  0  0  0  0  0  0  0  0  0  0
    4.4075    9.5388    0.0000 O   0  0  0  0  0  0  0  0  0  0  0  0
    3.1701    5.0147    0.0000 C   0  0  0  0  0  0  0  0  0  0  0  0
    4.7323    2.5241    0.0000 C   0  0  0  0  0  0  0  0  0  0  0  0
    6.2313    2.5790    0.0000 C   0  0  0  0  0  0  0  0  0  0  0  0
    7.0283    1.3083    0.0000 C   0  0  0  0  0  0  0  0  0  0  0  0
    8.5273    1.3632    0.0000 C   0  0  0  0  0  0  0  0  0  0  0  0
    9.3244    0.0925    0.0000 C   0  0  0  0  0  0  0  0  0  0  0  0
    1.9924    4.0919    0.0000 C   0  0  0  0  0  0  0  0  0  0  0  0
    0.7231    2.5722    0.0000 O   0  0  0  0  0  0  0  0  0  0  0  0
   -1.2276    2.9116    0.0000 C   0  0  0  0  0  0  0  0  0  0  0  0
   -2.5476    3.6616    0.0000 O   0  0  0  0  0  0  0  0  0  0  0  0
   -3.8476    2.9116    0.0000 C   0  0  0  0  0  0  0  0  0  0  0  0
   -3.8476    1.4216    0.0000 C   0  0  0  0  0  0  0  0  0  0  0  0
   -2.5476    0.6616    0.0000 C   0  0  0  0  0  0  0  0  0  0  0  0
   -1.2276    1.4216    0.0000 C   0  0  0  0  0  0  0  0  0  0  0  0
   -0.7157    0.0116    0.0000 O   0  0  0  0  0  0  0  0  0  0  0  0
   -3.5164   -0.4836    0.0000 O   0  0  0  0  0  0  0  0  0  0  0  0
   -5.3243    1.6847    0.0000 O   0  0  0  0  0  0  0  0  0  0  0  0
   -4.3603    4.3212    0.0000 C   0  0  0  0  0  0  0  0  0  0  0  0
   -5.8375    4.5820    0.0000 O   0  0  0  0  0  0  0  0  0  0  0  0
  1  2  1  0
  2  3  1  0
  3  4  1  0
  4  5  1  0
  5  6  1  0
  5  7  2  0
  3  8  1  0
  8  9  1  0
  9 10  1  0
 10 11  2  0
 11 12  1  0
 12 13  1  0
  8 14  1  0
  1 14  1  0
 14 15  1  0
 15 16  1  0
 16 17  1  0
 17 18  1  0
 18 19  1  0
 19 20  1  0
 20 21  1  0
 16 21  1  0
 21 22  1  0
 20 23  1  0
 19 24  1  0
 18 25  1  0
 25 26  1  0
M  END
>  <cdk:Title>  (57) 
2-{2-[(2Z)-pent-2-en-1-yl]-3-{[(2R_3R_4S_5S_6R)-3_4_5-trihydroxy-6-(hydroxymethyl)oxan-2-yl]oxy}cyclopentyl}acetic acid

>  <1A2>  (57) 
N

>  <2A6>  (57) 
N

>  <2B6>  (57) 
N

>  <2C8>  (57) 
N

>  <2C9>  (57) 
N

>  <2C19>  (57) 
N

>  <2D6>  (57) 
N

>  <2E1>  (57) 
N

>  <3A4>  (57) 
N

>  <Citation>  (57) 
Nucleic Acids Res. 2018. Jan 4;46(D1):D608-17. PMID:29140435
Nucleic Acids Res. 2018 Jan 4;46(D1):D1074-D1082. PMID:29126136
Nucleic Acids Res., 45:D380-388 (2017).  PMID:27924025
Nucleic Acids Res. 2016 Jan 4;44(D1):D1202-13. PMID:26400175

>  <ROMol>  (57) 
<rdkit.Chem.rdchem.Mol object at 0x7c29060d7df0>

>  <Drug_like>  (57) 
True

$$$$
Steviol
     RDKit          2D

 23 26  0  0  0  0  0  0  0  0999 V2000
    5.6844   -0.2374    0.0000 C   0  0  0  0  0  0  0  0  0  0  0  0
    4.2008   -0.4587    0.0000 C   0  0  0  0  0  0  0  0  0  0  0  0
    3.7508   -1.8887    0.0000 C   0  0  0  0  0  0  0  0  0  0  0  0
    2.3608   -2.4387    0.0000 C   0  0  0  0  0  0  0  0  0  0  0  0
    2.3608   -3.9387    0.0000 C   0  0  0  0  0  0  0  0  0  0  0  0
    1.0608   -4.6887    0.0000 C   0  0  0  0  0  0  0  0  0  0  0  0
   -0.2392   -3.9387    0.0000 C   0  0  0  0  0  0  0  0  0  0  0  0
   -0.2392   -2.4387    0.0000 C   0  0  0  0  0  0  0  0  0  0  0  0
    0.2713    0.4567    0.0000 C   0  0  0  0  0  0  0  0  0  0  0  0
   -1.5392   -1.6887    0.0000 C   0  0  0  0  0  0  0  0  0  0  0  0
   -2.8392   -2.4387    0.0000 C   0  0  0  0  0  0  0  0  0  0  0  0
   -2.8392   -3.9387    0.0000 C   0  0  0  0  0  0  0  0  0  0  0  0
   -1.5392   -4.6887    0.0000 C   0  0  0  0  0  0  0  0  0  0  0  0
   -3.1203   -6.5733    0.0000 C   0  0  0  0  0  0  0  0  0  0  0  0
    0.3503   -6.9410    0.0000 C   0  0  0  0  0  0  0  0  0  0  0  0
    1.8276   -6.6807    0.0000 O   0  0  0  0  0  0  0  0  0  0  0  0
   -0.1628   -8.3505    0.0000 O   0  0  0  0  0  0  0  0  0  0  0  0
    1.0608   -1.6887    0.0000 C   0  0  0  0  0  0  0  0  0  0  0  0
    0.8308   -0.2087    0.0000 C   0  0  0  0  0  0  0  0  0  0  0  0
    1.8508    0.8913    0.0000 C   0  0  0  0  0  0  0  0  0  0  0  0
    3.3508    0.7813    0.0000 C   0  0  0  0  0  0  0  0  0  0  0  0
    2.1708   -0.6087    0.0000 C   0  0  0  0  0  0  0  0  0  0  0  0
    4.0981    2.0819    0.0000 O   0  0  0  0  0  0  0  0  0  0  0  0
  1  2  2  0
  2  3  1  0
  4  3  1  1
  4  5  1  0
  5  6  1  0
  6  7  1  0
  7  8  1  0
  8  9  1  1
  8 10  1  0
 10 11  1  0
 11 12  1  0
 12 13  1  0
  7 13  1  0
 13 14  1  1
 13 15  1  0
 15 16  2  0
 15 17  1  0
  8 18  1  0
  4 18  1  0
 18 19  1  0
 19 20  1  0
 20 21  1  0
  2 21  1  0
 21 22  1  0
  4 22  1  0
 21 23  1  6
M  END
>  <cdk:Title>  (58) 
Steviol

>  <1A2>  (58) 
N

>  <2A6>  (58) 
N

>  <2B6>  (58) 
N

>  <2C8>  (58) 
N

>  <2C9>  (58) 
N

>  <2C19>  (58) 
N

>  <2D6>  (58) 
N

>  <2E1>  (58) 
N

>  <3A4>  (58) 
N

>  <Citation>  (58) 
Nucleic Acids Res. 2018. Jan 4;46(D1):D608-17. PMID:29140435
Nucleic Acids Res. 2018 Jan 4;46(D1):D1074-D1082. PMID:29126136
Nucleic Acids Res., 45:D380-388 (2017).  PMID:27924025
Nucleic Acids Res. 2016 Jan 4;44(D1):D1202-13. PMID:26400175

>  <ROMol>  (58) 
<rdkit.Chem.rdchem.Mol object at 0x7c29060d7e60>

>  <Drug_like>  (58) 
True

$$$$
AC1l4HOF
     RDKit          2D

 43 47  0  0  0  0  0  0  0  0999 V2000
   -2.8711    7.7748    0.0000 C   0  0  0  0  0  0  0  0  0  0  0  0
   -3.8352    6.6256    0.0000 C   0  0  0  0  0  0  0  0  0  0  0  0
   -5.3124    6.8859    0.0000 O   0  0  0  0  0  0  0  0  0  0  0  0
   -3.3220    5.2161    0.0000 O   0  0  0  0  0  0  0  0  0  0  0  0
   -4.2860    4.0670    0.0000 C   0  0  0  0  0  0  0  0  0  0  0  0
   -5.5860    3.3170    0.0000 C   0  0  0  0  0  0  0  0  0  0  0  0
   -5.5860    1.8170    0.0000 C   0  0  0  0  0  0  0  0  0  0  0  0
   -6.8860    1.0670    0.0000 C   0  0  0  0  0  0  0  0  0  0  0  0
   -6.8860    4.0070    0.0000 C   0  0  0  0  0  0  0  0  0  0  0  0
   -8.1860    1.8170    0.0000 C   0  0  0  0  0  0  0  0  0  0  0  0
   -9.4860    1.0670    0.0000 C   0  0  0  0  0  0  0  0  0  0  0  0
   -9.4860   -0.4330    0.0000 C   0  0  0  0  0  0  0  0  0  0  0  0
   -8.1860   -1.1830    0.0000 C   0  0  0  0  0  0  0  0  0  0  0  0
   -9.1501   -2.3322    0.0000 C   0  0  0  0  0  0  0  0  0  0  0  0
   -6.6050   -3.0677    0.0000 C   0  0  0  0  0  0  0  0  0  0  0  0
   -6.8860   -0.4330    0.0000 C   0  0  0  0  0  0  0  0  0  0  0  0
   -5.5860   -1.1830    0.0000 C   0  0  0  0  0  0  0  0  0  0  0  0
   -4.2860   -0.4330    0.0000 C   0  0  0  0  0  0  0  0  0  0  0  0
   -4.2860    1.0670    0.0000 C   0  0  0  0  0  0  0  0  0  0  0  0
   -2.0342   -0.8232    0.0000 C   0  0  0  0  0  0  0  0  0  0  0  0
   -2.9860    1.8170    0.0000 C   0  0  0  0  0  0  0  0  0  0  0  0
   -2.6749   -1.1065    0.0000 C   0  0  0  0  0  0  0  0  0  0  0  0
   -1.5560    1.3570    0.0000 C   0  0  0  0  0  0  0  0  0  0  0  0
   -0.6760    2.5670    0.0000 C   0  0  0  0  0  0  0  0  0  0  0  0
   -1.5560    3.7770    0.0000 C   0  0  0  0  0  0  0  0  0  0  0  0
   -2.9860    3.3170    0.0000 C   0  0  0  0  0  0  0  0  0  0  0  0
    0.9910    5.2453    0.0000 C   0  0  0  0  0  0  0  0  0  0  0  0
    0.1096    6.4590    0.0000 C   0  0  0  0  0  0  0  0  0  0  0  0
    2.1000    6.2443    0.0000 C   0  0  0  0  0  0  0  0  0  0  0  0
    3.3986    5.4935    0.0000 C   0  0  0  0  0  0  0  0  0  0  0  0
    3.0947    4.0289    0.0000 C   0  0  0  0  0  0  0  0  0  0  0  0
    5.5417    3.7764    0.0000 C   0  0  0  0  0  0  0  0  0  0  0  0
    6.4211    4.9915    0.0000 C   0  0  0  0  0  0  0  0  0  0  0  0
    8.1866    2.4925    0.0000 C   0  0  0  0  0  0  0  0  0  0  0  0
    5.1309    2.3337    0.0000 O   0  0  0  0  0  0  0  0  0  0  0  0
    1.5981    3.8778    0.0000 O   0  0  0  0  0  0  0  0  0  0  0  0
  -10.9633   -0.1727    0.0000 O   0  0  0  0  0  0  0  0  0  0  0  0
  -11.9273   -1.3219    0.0000 C   0  0  0  0  0  0  0  0  0  0  0  0
  -13.4046   -1.0616    0.0000 C   0  0  0  0  0  0  0  0  0  0  0  0
  -14.3686   -2.2108    0.0000 C   0  0  0  0  0  0  0  0  0  0  0  0
  -13.8555   -3.6202    0.0000 O   0  0  0  0  0  0  0  0  0  0  0  0
  -15.8459   -1.9504    0.0000 O   0  0  0  0  0  0  0  0  0  0  0  0
  -11.4142   -2.7314    0.0000 O   0  0  0  0  0  0  0  0  0  0  0  0
  1  2  1  0
  2  3  2  0
  2  4  1  0
  4  5  1  0
  5  6  1  0
  6  7  1  0
  7  8  1  0
  8  9  1  6
  8 10  1  0
 10 11  1  0
 11 12  1  0
 12 13  1  0
 13 14  1  0
 13 15  1  0
 13 16  1  0
  8 16  1  0
 16 17  1  0
 17 18  1  0
 18 19  1  0
  7 19  1  0
 19 20  1  6
 19 21  1  0
 21 22  1  1
 21 23  1  0
 23 24  1  0
 24 25  1  0
 25 26  1  0
  5 26  1  0
 21 26  1  0
 25 27  1  0
 27 28  1  1
 27 29  1  0
 29 30  1  0
 30 31  1  0
 31 32  1  0
 32 33  1  0
 32 34  1  0
 32 35  1  0
 31 36  1  0
 27 36  1  0
 12 37  1  0
 37 38  1  0
 38 39  1  0
 39 40  1  0
 40 41  2  0
 40 42  1  0
 38 43  2  0
M  END
>  <cdk:Title>  (59) 
AC1l4HOF

>  <1A2>  (59) 
N

>  <2A6>  (59) 
N

>  <2B6>  (59) 
N

>  <2C8>  (59) 
N

>  <2C9>  (59) 
N

>  <2C19>  (59) 
N

>  <2D6>  (59) 
N

>  <2E1>  (59) 
N

>  <3A4>  (59) 
N

>  <Citation>  (59) 
Nucleic Acids Res. 2018. Jan 4;46(D1):D608-17. PMID:29140435
Nucleic Acids Res. 2018 Jan 4;46(D1):D1074-D1082. PMID:29126136
Nucleic Acids Res., 45:D380-388 (2017).  PMID:27924025
Nucleic Acids Res. 2016 Jan 4;44(D1):D1202-13. PMID:26400175

>  <ROMol>  (59) 
<rdkit.Chem.rdchem.Mol object at 0x7c29060d7ed0>

>  <Drug_like>  (59) 
True

$$$$
gamma-Camphorene
     RDKit          2D

 20 20  0  0  0  0  0  0  0  0999 V2000
    7.4026    2.3575    0.0000 C   0  0  0  0  0  0  0  0  0  0  0  0
    6.8879    3.7664    0.0000 C   0  0  0  0  0  0  0  0  0  0  0  0
    7.8506    4.9166    0.0000 C   0  0  0  0  0  0  0  0  0  0  0  0
    5.4103    4.0250    0.0000 C   0  0  0  0  0  0  0  0  0  0  0  0
    4.4476    2.8748    0.0000 C   0  0  0  0  0  0  0  0  0  0  0  0
    2.9700    3.1335    0.0000 C   0  0  0  0  0  0  0  0  0  0  0  0
    2.0073    1.9832    0.0000 C   0  0  0  0  0  0  0  0  0  0  0  0
    2.5220    0.5743    0.0000 C   0  0  0  0  0  0  0  0  0  0  0  0
   -0.8887    2.4902    0.0000 C   0  0  0  0  0  0  0  0  0  0  0  0
   -2.1832    3.2324    0.0000 C   0  0  0  0  0  0  0  0  0  0  0  0
   -3.4823    2.4824    0.0000 C   0  0  0  0  0  0  0  0  0  0  0  0
   -3.4868    0.9902    0.0000 C   0  0  0  0  0  0  0  0  0  0  0  0
   -2.1873    0.2394    0.0000 C   0  0  0  0  0  0  0  0  0  0  0  0
   -2.1876   -1.7406    0.0000 C   0  0  0  0  0  0  0  0  0  0  0  0
   -3.4867   -2.4904    0.0000 C   0  0  0  0  0  0  0  0  0  0  0  0
   -3.4870   -3.9904    0.0000 C   0  0  0  0  0  0  0  0  0  0  0  0
   -4.7861   -4.7402    0.0000 C   0  0  0  0  0  0  0  0  0  0  0  0
   -4.7864   -6.2402    0.0000 C   0  0  0  0  0  0  0  0  0  0  0  0
   -6.0851   -3.9900    0.0000 C   0  0  0  0  0  0  0  0  0  0  0  0
   -0.8882    0.9894    0.0000 C   0  0  0  0  0  0  0  0  0  0  0  0
  1  2  1  0
  2  3  1  0
  2  4  2  0
  4  5  1  0
  5  6  1  0
  6  7  1  0
  7  8  2  0
  7  9  1  0
  9 10  1  0
 10 11  1  0
 11 12  1  0
 12 13  2  0
 13 14  1  0
 14 15  1  0
 15 16  1  0
 16 17  2  0
 17 18  1  0
 17 19  1  0
 13 20  1  0
  9 20  1  0
M  END
>  <cdk:Title>  (60) 
gamma-Camphorene

>  <1A2>  (60) 
N

>  <2A6>  (60) 
N

>  <2B6>  (60) 
N

>  <2C8>  (60) 
N

>  <2C9>  (60) 
N

>  <2C19>  (60) 
N

>  <2D6>  (60) 
N

>  <2E1>  (60) 
N

>  <3A4>  (60) 
N

>  <Citation>  (60) 
Nucleic Acids Res. 2018. Jan 4;46(D1):D608-17. PMID:29140435
Nucleic Acids Res. 2018 Jan 4;46(D1):D1074-D1082. PMID:29126136
Nucleic Acids Res., 45:D380-388 (2017).  PMID:27924025
Nucleic Acids Res. 2016 Jan 4;44(D1):D1202-13. PMID:26400175

>  <ROMol>  (60) 
<rdkit.Chem.rdchem.Mol object at 0x7c29060d7f40>

>  <Drug_like>  (60) 
True

$$$$
Lysylcysteine
     RDKit          2D

 16 15  0  0  0  0  0  0  0  0999 V2000
   10.1815   -2.5100    0.0000 N   0  0  0  0  0  0  0  0  0  0  0  0
    9.4315   -3.8090    0.0000 C   0  0  0  0  0  0  0  0  0  0  0  0
   10.1815   -5.1081    0.0000 O   0  0  0  0  0  0  0  0  0  0  0  0
    7.9315   -3.8090    0.0000 C   0  0  0  0  0  0  0  0  0  0  0  0
    8.1920   -5.2862    0.0000 N   0  0  0  0  0  0  0  0  0  0  0  0
    6.9415   -2.0943    0.0000 C   0  0  0  0  0  0  0  0  0  0  0  0
    4.9615   -2.0943    0.0000 C   0  0  0  0  0  0  0  0  0  0  0  0
    3.9715   -0.3796    0.0000 C   0  0  0  0  0  0  0  0  0  0  0  0
    2.4715   -0.3796    0.0000 C   0  0  0  0  0  0  0  0  0  0  0  0
    1.7215    0.9195    0.0000 N   0  0  0  0  0  0  0  0  0  0  0  0
   11.6815   -2.5100    0.0000 C   0  0  0  0  0  0  0  0  0  0  0  0
   12.4315   -3.8090    0.0000 C   0  0  0  0  0  0  0  0  0  0  0  0
   13.9315   -3.8090    0.0000 S   0  0  0  0  0  0  0  0  0  0  0  0
   11.4210   -1.0328    0.0000 C   0  0  0  0  0  0  0  0  0  0  0  0
   12.5701   -0.0686    0.0000 O   0  0  0  0  0  0  0  0  0  0  0  0
   10.0115   -0.5198    0.0000 O   0  0  0  0  0  0  0  0  0  0  0  0
  1  2  1  0
  2  3  2  0
  2  4  1  0
  4  5  1  0
  4  6  1  0
  6  7  1  0
  7  8  1  0
  8  9  1  0
  9 10  1  0
  1 11  1  0
 11 12  1  0
 12 13  1  0
 11 14  1  0
 14 15  1  0
 14 16  2  0
M  END
>  <cdk:Title>  (61) 
Lysylcysteine

>  <1A2>  (61) 
N

>  <2A6>  (61) 
N

>  <2B6>  (61) 
N

>  <2C8>  (61) 
N

>  <2C9>  (61) 
N

>  <2C19>  (61) 
N

>  <2D6>  (61) 
N

>  <2E1>  (61) 
N

>  <3A4>  (61) 
N

>  <Citation>  (61) 
Nucleic Acids Res. 2018. Jan 4;46(D1):D608-17. PMID:29140435
Nucleic Acids Res. 2018 Jan 4;46(D1):D1074-D1082. PMID:29126136
Nucleic Acids Res., 45:D380-388 (2017).  PMID:27924025
Nucleic Acids Res. 2016 Jan 4;44(D1):D1202-13. PMID:26400175

>  <ROMol>  (61) 
<rdkit.Chem.rdchem.Mol object at 0x7c29060ec040>

>  <Drug_like>  (61) 
True

$$$$
Scorzoside
     RDKit          2D

 29 32  0  0  0  0  0  0  0  0999 V2000
    5.2688   -6.2501    0.0000 C   0  0  0  0  0  0  0  0  0  0  0  0
    5.9363   -4.9068    0.0000 C   0  0  0  0  0  0  0  0  0  0  0  0
    7.4053   -4.6613    0.0000 C   0  0  0  0  0  0  0  0  0  0  0  0
    7.6340   -3.1868    0.0000 C   0  0  0  0  0  0  0  0  0  0  0  0
    6.2853   -2.5131    0.0000 C   0  0  0  0  0  0  0  0  0  0  0  0
    6.1084   -1.0200    0.0000 C   0  0  0  0  0  0  0  0  0  0  0  0
    7.3741   -0.2150    0.0000 C   0  0  0  0  0  0  0  0  0  0  0  0
    4.8367   -0.2303    0.0000 C   0  0  0  0  0  0  0  0  0  0  0  0
    3.4228   -0.7434    0.0000 C   0  0  0  0  0  0  0  0  0  0  0  0
    2.9396   -2.1532    0.0000 C   0  0  0  0  0  0  0  0  0  0  0  0
    1.4888   -2.5452    0.0000 C   0  0  0  0  0  0  0  0  0  0  0  0
   -0.0099   -2.6082    0.0000 C   0  0  0  0  0  0  0  0  0  0  0  0
    1.3855   -4.0410    0.0000 C   0  0  0  0  0  0  0  0  0  0  0  0
    0.1174   -4.8423    0.0000 O   0  0  0  0  0  0  0  0  0  0  0  0
    2.7974   -4.5963    0.0000 O   0  0  0  0  0  0  0  0  0  0  0  0
    3.7483   -3.4308    0.0000 C   0  0  0  0  0  0  0  0  0  0  0  0
    5.2428   -3.5841    0.0000 C   0  0  0  0  0  0  0  0  0  0  0  0
    3.5084    1.8402    0.0000 O   0  0  0  0  0  0  0  0  0  0  0  0
    4.1967    3.1729    0.0000 C   0  0  0  0  0  0  0  0  0  0  0  0
    2.7753    3.6197    0.0000 C   0  0  0  0  0  0  0  0  0  0  0  0
    2.4461    5.1069    0.0000 C   0  0  0  0  0  0  0  0  0  0  0  0
    3.5609    6.1191    0.0000 C   0  0  0  0  0  0  0  0  0  0  0  0
    4.9824    5.6724    0.0000 C   0  0  0  0  0  0  0  0  0  0  0  0
    6.4809    5.7388    0.0000 C   0  0  0  0  0  0  0  0  0  0  0  0
    7.1726    7.0698    0.0000 O   0  0  0  0  0  0  0  0  0  0  0  0
    5.3080    4.2073    0.0000 O   0  0  0  0  0  0  0  0  0  0  0  0
    4.2548    7.4490    0.0000 O   0  0  0  0  0  0  0  0  0  0  0  0
    1.6441    6.3745    0.0000 O   0  0  0  0  0  0  0  0  0  0  0  0
    1.2767    3.5542    0.0000 O   0  0  0  0  0  0  0  0  0  0  0  0
  1  2  2  0
  2  3  1  0
  3  4  1  0
  4  5  1  0
  5  6  1  0
  6  7  2  0
  6  8  1  0
  8  9  1  0
  9 10  1  0
 10 11  1  0
 11 12  1  0
 11 13  1  0
 13 14  2  0
 13 15  1  0
 15 16  1  0
 10 16  1  0
 16 17  1  0
  2 17  1  0
  5 17  1  0
  8 18  1  0
 18 19  1  0
 19 20  1  0
 20 21  1  0
 21 22  1  0
 22 23  1  0
 23 24  1  0
 24 25  1  0
 23 26  1  0
 19 26  1  0
 22 27  1  0
 21 28  1  0
 20 29  1  0
M  END
>  <cdk:Title>  (62) 
Scorzoside

>  <1A2>  (62) 
N

>  <2A6>  (62) 
N

>  <2B6>  (62) 
N

>  <2C8>  (62) 
N

>  <2C9>  (62) 
N

>  <2C19>  (62) 
N

>  <2D6>  (62) 
N

>  <2E1>  (62) 
N

>  <3A4>  (62) 
N

>  <Citation>  (62) 
Nucleic Acids Res. 2018. Jan 4;46(D1):D608-17. PMID:29140435
Nucleic Acids Res. 2018 Jan 4;46(D1):D1074-D1082. PMID:29126136
Nucleic Acids Res., 45:D380-388 (2017).  PMID:27924025
Nucleic Acids Res. 2016 Jan 4;44(D1):D1202-13. PMID:26400175

>  <ROMol>  (62) 
<rdkit.Chem.rdchem.Mol object at 0x7c29060ec0b0>

>  <Drug_like>  (62) 
True

$$$$
(3beta_17alpha_23R)-17_23-Epoxy-3_29-dihydroxy-27-norlanost-8-ene-15_24-dione
     RDKit          2D

 34 38  0  0  0  0  0  0  0  0999 V2000
    4.7999    4.0494    0.0000 C   0  0  0  0  0  0  0  0  0  0  0  0
    6.0989    3.2994    0.0000 C   0  0  0  0  0  0  0  0  0  0  0  0
    6.0989    1.7994    0.0000 C   0  0  0  0  0  0  0  0  0  0  0  0
    4.7999    1.0494    0.0000 C   0  0  0  0  0  0  0  0  0  0  0  0
    3.5009    1.7994    0.0000 C   0  0  0  0  0  0  0  0  0  0  0  0
    3.5009    3.2994    0.0000 C   0  0  0  0  0  0  0  0  0  0  0  0
    2.2018    1.0494    0.0000 C   0  0  0  0  0  0  0  0  0  0  0  0
    2.2018   -0.4506    0.0000 C   0  0  0  0  0  0  0  0  0  0  0  0
    3.5009   -1.2006    0.0000 C   0  0  0  0  0  0  0  0  0  0  0  0
    4.7999   -0.4506    0.0000 C   0  0  0  0  0  0  0  0  0  0  0  0
    0.9028   -1.2006    0.0000 C   0  0  0  0  0  0  0  0  0  0  0  0
   -0.3963   -0.4506    0.0000 C   0  0  0  0  0  0  0  0  0  0  0  0
   -0.3963    1.0494    0.0000 C   0  0  0  0  0  0  0  0  0  0  0  0
    0.9028    1.7994    0.0000 C   0  0  0  0  0  0  0  0  0  0  0  0
   -1.5110   -1.4543    0.0000 C   0  0  0  0  0  0  0  0  0  0  0  0
   -0.9009   -2.8246    0.0000 C   0  0  0  0  0  0  0  0  0  0  0  0
    0.5909   -2.6679    0.0000 C   0  0  0  0  0  0  0  0  0  0  0  0
    1.5946   -3.7826    0.0000 O   0  0  0  0  0  0  0  0  0  0  0  0
   -2.6257   -2.4580    0.0000 O   0  0  0  0  0  0  0  0  0  0  0  0
   -3.9247   -1.7080    0.0000 C   0  0  0  0  0  0  0  0  0  0  0  0
   -3.6129   -0.2408    0.0000 C   0  0  0  0  0  0  0  0  0  0  0  0
   -2.1211   -0.0840    0.0000 C   0  0  0  0  0  0  0  0  0  0  0  0
   -0.6945    0.3795    0.0000 C   0  0  0  0  0  0  0  0  0  0  0  0
   -5.8078   -1.0962    0.0000 C   0  0  0  0  0  0  0  0  0  0  0  0
   -6.9225   -2.0999    0.0000 C   0  0  0  0  0  0  0  0  0  0  0  0
   -8.3491   -1.6363    0.0000 C   0  0  0  0  0  0  0  0  0  0  0  0
   -6.1197    0.3711    0.0000 O   0  0  0  0  0  0  0  0  0  0  0  0
   -2.6436    0.5499    0.0000 C   0  0  0  0  0  0  0  0  0  0  0  0
    2.2784   -3.2401    0.0000 C   0  0  0  0  0  0  0  0  0  0  0  0
    1.2487    3.6892    0.0000 C   0  0  0  0  0  0  0  0  0  0  0  0
    6.9403   -0.5123    0.0000 C   0  0  0  0  0  0  0  0  0  0  0  0
    7.5761    2.0598    0.0000 C   0  0  0  0  0  0  0  0  0  0  0  0
    8.5403    0.9108    0.0000 O   0  0  0  0  0  0  0  0  0  0  0  0
    7.5761    3.0389    0.0000 O   0  0  0  0  0  0  0  0  0  0  0  0
  1  2  1  0
  2  3  1  0
  3  4  1  0
  4  5  1  0
  5  6  1  0
  1  6  1  0
  5  7  1  0
  7  8  2  0
  8  9  1  0
  9 10  1  0
  4 10  1  0
  8 11  1  0
 11 12  1  0
 12 13  1  0
 13 14  1  0
  7 14  1  0
 12 15  1  0
 15 16  1  1
 16 17  1  0
 11 17  1  0
 17 18  2  0
 15 19  1  0
 19 20  1  0
 20 21  1  0
 21 22  1  0
 15 22  1  0
 22 23  1  0
 20 24  1  0
 24 25  1  0
 25 26  1  0
 24 27  2  0
 12 28  1  6
 11 29  1  6
  5 30  1  6
  3 31  1  1
  3 32  1  0
 32 33  1  0
  2 34  1  0
M  END
>  <cdk:Title>  (63) 
(3beta_17alpha_23R)-17_23-Epoxy-3_29-dihydroxy-27-norlanost-8-ene-15_24-dione

>  <1A2>  (63) 
N

>  <2A6>  (63) 
N

>  <2B6>  (63) 
N

>  <2C8>  (63) 
N

>  <2C9>  (63) 
N

>  <2C19>  (63) 
N

>  <2D6>  (63) 
N

>  <2E1>  (63) 
N

>  <3A4>  (63) 
N

>  <Citation>  (63) 
Nucleic Acids Res. 2018. Jan 4;46(D1):D608-17. PMID:29140435
Nucleic Acids Res. 2018 Jan 4;46(D1):D1074-D1082. PMID:29126136
Nucleic Acids Res., 45:D380-388 (2017).  PMID:27924025
Nucleic Acids Res. 2016 Jan 4;44(D1):D1202-13. PMID:26400175

>  <ROMol>  (63) 
<rdkit.Chem.rdchem.Mol object at 0x7c29060ec270>

>  <Drug_like>  (63) 
True

$$$$
AC1O51yn
     RDKit          2D

 26 26  0  0  0  0  0  0  0  0999 V2000
   22.8609   -4.3690    0.0000 C   0  0  0  0  0  0  0  0  0  0  0  0
   21.5646   -5.1237    0.0000 C   0  0  0  0  0  0  0  0  0  0  0  0
   20.2628   -4.3784    0.0000 C   0  0  0  0  0  0  0  0  0  0  0  0
   18.9665   -5.1331    0.0000 C   0  0  0  0  0  0  0  0  0  0  0  0
   17.6648   -4.3878    0.0000 C   0  0  0  0  0  0  0  0  0  0  0  0
   16.3685   -5.1425    0.0000 C   0  0  0  0  0  0  0  0  0  0  0  0
   15.0667   -4.3972    0.0000 C   0  0  0  0  0  0  0  0  0  0  0  0
   13.7704   -5.1519    0.0000 C   0  0  0  0  0  0  0  0  0  0  0  0
   12.4687   -4.4066    0.0000 C   0  0  0  0  0  0  0  0  0  0  0  0
   11.1723   -5.1612    0.0000 C   0  0  0  0  0  0  0  0  0  0  0  0
    9.0375   -3.9390    0.0000 C   0  0  0  0  0  0  0  0  0  0  0  0
    7.7412   -4.6936    0.0000 C   0  0  0  0  0  0  0  0  0  0  0  0
    6.0229   -3.7098    0.0000 C   0  0  0  0  0  0  0  0  0  0  0  0
    3.8969   -4.9475    0.0000 C   0  0  0  0  0  0  0  0  0  0  0  0
    2.5952   -4.2022    0.0000 C   0  0  0  0  0  0  0  0  0  0  0  0
    1.2989   -4.9569    0.0000 C   0  0  0  0  0  0  0  0  0  0  0  0
   -0.0029   -4.2116    0.0000 C   0  0  0  0  0  0  0  0  0  0  0  0
   -1.1113   -3.2119    0.0000 C   0  0  0  0  0  0  0  0  0  0  0  0
   -2.4103   -3.9619    0.0000 C   0  0  0  0  0  0  0  0  0  0  0  0
   -2.0987   -5.4216    0.0000 C   0  0  0  0  0  0  0  0  0  0  0  0
   -3.1051   -6.5338    0.0000 O   0  0  0  0  0  0  0  0  0  0  0  0
   -0.6058   -5.5874    0.0000 O   0  0  0  0  0  0  0  0  0  0  0  0
   -0.9538   -1.7202    0.0000 O   0  0  0  0  0  0  0  0  0  0  0  0
   -2.1669   -0.8379    0.0000 C   0  0  0  0  0  0  0  0  0  0  0  0
    0.8771   -2.9969    0.0000 O   0  0  0  0  0  0  0  0  0  0  0  0
    1.3043   -6.4569    0.0000 O   0  0  0  0  0  0  0  0  0  0  0  0
  1  2  2  0
  2  3  1  0
  3  4  1  0
  4  5  2  0
  5  6  1  0
  6  7  1  0
  7  8  2  0
  8  9  1  0
  9 10  1  0
 10 11  1  0
 11 12  1  0
 12 13  1  0
 13 14  1  0
 14 15  1  0
 15 16  1  0
 16 17  1  0
 17 18  1  0
 18 19  2  0
 19 20  1  0
 20 21  2  0
 20 22  1  0
 17 22  1  0
 18 23  1  0
 23 24  1  0
 17 25  1  6
 16 26  2  0
M  END
>  <cdk:Title>  (64) 
AC1O51yn

>  <1A2>  (64) 
N

>  <2A6>  (64) 
N

>  <2B6>  (64) 
N

>  <2C8>  (64) 
N

>  <2C9>  (64) 
N

>  <2C19>  (64) 
N

>  <2D6>  (64) 
N

>  <2E1>  (64) 
N

>  <3A4>  (64) 
N

>  <Citation>  (64) 
Nucleic Acids Res. 2018. Jan 4;46(D1):D608-17. PMID:29140435
Nucleic Acids Res. 2018 Jan 4;46(D1):D1074-D1082. PMID:29126136
Nucleic Acids Res., 45:D380-388 (2017).  PMID:27924025
Nucleic Acids Res. 2016 Jan 4;44(D1):D1202-13. PMID:26400175

>  <ROMol>  (64) 
<rdkit.Chem.rdchem.Mol object at 0x7c29060ec2e0>

>  <Drug_like>  (64) 
True

$$$$
Muricin e
     RDKit          2D

 40 41  0  0  0  0  0  0  0  0999 V2000
    5.1817   -1.6486    0.0000 C   0  0  0  0  0  0  0  0  0  0  0  0
    3.8827   -2.3986    0.0000 C   0  0  0  0  0  0  0  0  0  0  0  0
    2.7693   -1.3902    0.0000 C   0  0  0  0  0  0  0  0  0  0  0  0
    3.3772   -0.0231    0.0000 O   0  0  0  0  0  0  0  0  0  0  0  0
    4.8651   -0.1802    0.0000 C   0  0  0  0  0  0  0  0  0  0  0  0
    7.7884    0.1324    0.0000 C   0  0  0  0  0  0  0  0  0  0  0  0
    8.7850    2.3815    0.0000 C   0  0  0  0  0  0  0  0  0  0  0  0
   10.7538    2.5920    0.0000 C   0  0  0  0  0  0  0  0  0  0  0  0
   11.5558    4.4023    0.0000 C   0  0  0  0  0  0  0  0  0  0  0  0
   14.0019    4.6638    0.0000 C   0  0  0  0  0  0  0  0  0  0  0  0
   14.8040    6.4741    0.0000 C   0  0  0  0  0  0  0  0  0  0  0  0
   16.7728    6.6846    0.0000 C   0  0  0  0  0  0  0  0  0  0  0  0
   17.5749    8.4948    0.0000 C   0  0  0  0  0  0  0  0  0  0  0  0
   19.0664    8.6543    0.0000 C   0  0  0  0  0  0  0  0  0  0  0  0
   19.6740   10.0257    0.0000 C   0  0  0  0  0  0  0  0  0  0  0  0
   18.9259   11.3174    0.0000 C   0  0  0  0  0  0  0  0  0  0  0  0
   19.9219   12.4417    0.0000 O   0  0  0  0  0  0  0  0  0  0  0  0
   21.2919   11.8258    0.0000 C   0  0  0  0  0  0  0  0  0  0  0  0
   21.1405   10.3409    0.0000 C   0  0  0  0  0  0  0  0  0  0  0  0
   22.7594   11.5152    0.0000 C   0  0  0  0  0  0  0  0  0  0  0  0
   17.4334   11.4671    0.0000 O   0  0  0  0  0  0  0  0  0  0  0  0
   17.6768    9.9914    0.0000 O   0  0  0  0  0  0  0  0  0  0  0  0
    1.4708   -0.6393    0.0000 C   0  0  0  0  0  0  0  0  0  0  0  0
   -0.2446   -1.6282    0.0000 C   0  0  0  0  0  0  0  0  0  0  0  0
   -1.9587   -0.6371    0.0000 C   0  0  0  0  0  0  0  0  0  0  0  0
   -3.6741   -1.6259    0.0000 C   0  0  0  0  0  0  0  0  0  0  0  0
   -5.8037   -0.3945    0.0000 C   0  0  0  0  0  0  0  0  0  0  0  0
   -7.9349   -1.6231    0.0000 C   0  0  0  0  0  0  0  0  0  0  0  0
   -9.6490   -0.6320    0.0000 C   0  0  0  0  0  0  0  0  0  0  0  0
  -11.7802   -1.8606    0.0000 C   0  0  0  0  0  0  0  0  0  0  0  0
  -13.4943   -0.8695    0.0000 C   0  0  0  0  0  0  0  0  0  0  0  0
  -15.2097   -1.8583    0.0000 C   0  0  0  0  0  0  0  0  0  0  0  0
  -16.9237   -0.8672    0.0000 C   0  0  0  0  0  0  0  0  0  0  0  0
  -18.6391   -1.8561    0.0000 C   0  0  0  0  0  0  0  0  0  0  0  0
  -20.3532   -0.8649    0.0000 C   0  0  0  0  0  0  0  0  0  0  0  0
  -21.6527   -1.6141    0.0000 C   0  0  0  0  0  0  0  0  0  0  0  0
  -22.9513   -0.8632    0.0000 C   0  0  0  0  0  0  0  0  0  0  0  0
  -12.7452   -3.0090    0.0000 O   0  0  0  0  0  0  0  0  0  0  0  0
   -8.6840    0.5164    0.0000 O   0  0  0  0  0  0  0  0  0  0  0  0
    2.4357    0.5091    0.0000 O   0  0  0  0  0  0  0  0  0  0  0  0
  1  2  1  0
  2  3  1  0
  3  4  1  0
  4  5  1  0
  1  5  1  0
  5  6  1  0
  6  7  1  0
  7  8  1  0
  8  9  1  0
  9 10  1  0
 10 11  1  0
 11 12  1  0
 12 13  1  0
 13 14  1  0
 14 15  1  0
 15 16  1  0
 16 17  1  0
 17 18  1  0
 18 19  1  0
 15 19  2  0
 18 20  1  0
 16 21  2  0
 13 22  1  0
  3 23  1  0
 23 24  1  0
 24 25  1  0
 25 26  1  0
 26 27  1  0
 27 28  1  0
 28 29  1  0
 29 30  1  0
 30 31  1  0
 31 32  1  0
 32 33  1  0
 33 34  1  0
 34 35  1  0
 35 36  1  0
 36 37  1  0
 30 38  1  0
 29 39  1  0
 23 40  1  0
M  END
>  <cdk:Title>  (65) 
Muricin e

>  <1A2>  (65) 
N

>  <2A6>  (65) 
N

>  <2B6>  (65) 
N

>  <2C8>  (65) 
N

>  <2C9>  (65) 
N

>  <2C19>  (65) 
N

>  <2D6>  (65) 
N

>  <2E1>  (65) 
N

>  <3A4>  (65) 
N

>  <Citation>  (65) 
Nucleic Acids Res. 2018. Jan 4;46(D1):D608-17. PMID:29140435
Nucleic Acids Res. 2018 Jan 4;46(D1):D1074-D1082. PMID:29126136
Nucleic Acids Res., 45:D380-388 (2017).  PMID:27924025
Nucleic Acids Res. 2016 Jan 4;44(D1):D1202-13. PMID:26400175

>  <ROMol>  (65) 
<rdkit.Chem.rdchem.Mol object at 0x7c29060ec3c0>

>  <Drug_like>  (65) 
True

$$$$
L-Leucyl-L-lysine
     RDKit          2D

 18 17  0  0  0  0  0  0  0  0999 V2000
   14.4536   -1.7989    0.0000 N   0  0  0  0  0  0  0  0  0  0  0  0
   13.1546   -2.5489    0.0000 C   0  0  0  0  0  0  0  0  0  0  0  0
   11.8555   -1.7989    0.0000 C   0  0  0  0  0  0  0  0  0  0  0  0
    9.7251   -3.0289    0.0000 C   0  0  0  0  0  0  0  0  0  0  0  0
    8.0104   -2.0389    0.0000 C   0  0  0  0  0  0  0  0  0  0  0  0
    6.7113   -2.7889    0.0000 C   0  0  0  0  0  0  0  0  0  0  0  0
    5.4123   -2.0389    0.0000 N   0  0  0  0  0  0  0  0  0  0  0  0
    5.4123   -0.5389    0.0000 C   0  0  0  0  0  0  0  0  0  0  0  0
    6.7113    0.2111    0.0000 O   0  0  0  0  0  0  0  0  0  0  0  0
    4.1132    0.2111    0.0000 C   0  0  0  0  0  0  0  0  0  0  0  0
    5.0774    1.3601    0.0000 N   0  0  0  0  0  0  0  0  0  0  0  0
    2.8142   -0.5389    0.0000 C   0  0  0  0  0  0  0  0  0  0  0  0
    1.5152    0.2111    0.0000 C   0  0  0  0  0  0  0  0  0  0  0  0
    1.5152    1.7111    0.0000 C   0  0  0  0  0  0  0  0  0  0  0  0
    0.8380   -1.6495    0.0000 C   0  0  0  0  0  0  0  0  0  0  0  0
    5.7471   -3.9380    0.0000 C   0  0  0  0  0  0  0  0  0  0  0  0
    6.2602   -5.3476    0.0000 O   0  0  0  0  0  0  0  0  0  0  0  0
    4.2699   -3.6775    0.0000 O   0  0  0  0  0  0  0  0  0  0  0  0
  1  2  1  0
  2  3  1  0
  3  4  1  0
  4  5  1  0
  5  6  1  0
  6  7  1  0
  7  8  1  0
  8  9  2  0
  8 10  1  0
 10 11  1  0
 10 12  1  0
 12 13  1  0
 13 14  1  0
 13 15  1  0
  6 16  1  0
 16 17  1  0
 16 18  2  0
M  END
>  <cdk:Title>  (66) 
L-Leucyl-L-lysine

>  <1A2>  (66) 
N

>  <2A6>  (66) 
N

>  <2B6>  (66) 
N

>  <2C8>  (66) 
N

>  <2C9>  (66) 
N

>  <2C19>  (66) 
N

>  <2D6>  (66) 
N

>  <2E1>  (66) 
N

>  <3A4>  (66) 
N

>  <Citation>  (66) 
Nucleic Acids Res. 2018. Jan 4;46(D1):D608-17. PMID:29140435
Nucleic Acids Res. 2018 Jan 4;46(D1):D1074-D1082. PMID:29126136
Nucleic Acids Res., 45:D380-388 (2017).  PMID:27924025
Nucleic Acids Res. 2016 Jan 4;44(D1):D1202-13. PMID:26400175

>  <ROMol>  (66) 
<rdkit.Chem.rdchem.Mol object at 0x7c29060ec430>

>  <Drug_like>  (66) 
True

$$$$
(2S_5R_8S)-2_8-Dimethyl-5-(prop-1-en-2-yl)-11-oxatricyclo[5.3.1.0??_???]undecane
     RDKit          2D

 16 18  0  0  0  0  0  0  0  0999 V2000
    3.8384    0.6317    0.0000 C   0  0  0  0  0  0  0  0  0  0  0  0
    2.5393   -0.1183    0.0000 C   0  0  0  0  0  0  0  0  0  0  0  0
    2.5393   -3.0583    0.0000 C   0  0  0  0  0  0  0  0  0  0  0  0
   -0.0068    1.3517    0.0000 C   0  0  0  0  0  0  0  0  0  0  0  0
   -0.8518    2.5910    0.0000 C   0  0  0  0  0  0  0  0  0  0  0  0
   -2.3476    2.7031    0.0000 C   0  0  0  0  0  0  0  0  0  0  0  0
   -3.3678    1.6036    0.0000 C   0  0  0  0  0  0  0  0  0  0  0  0
   -5.0240    4.0327    0.0000 C   0  0  0  0  0  0  0  0  0  0  0  0
   -3.1443    0.1203    0.0000 C   0  0  0  0  0  0  0  0  0  0  0  0
   -2.8324    1.5875    0.0000 C   0  0  0  0  0  0  0  0  0  0  0  0
   -1.3406    1.7443    0.0000 C   0  0  0  0  0  0  0  0  0  0  0  0
   -0.7305    0.3740    0.0000 C   0  0  0  0  0  0  0  0  0  0  0  0
   -1.4418   -2.4787    0.0000 C   0  0  0  0  0  0  0  0  0  0  0  0
   -1.8452   -0.6297    0.0000 C   0  0  0  0  0  0  0  0  0  0  0  0
   -0.4489   -0.0817    0.0000 C   0  0  0  0  0  0  0  0  0  0  0  0
   -3.1443   -1.3797    0.0000 O   0  0  0  0  0  0  0  0  0  0  0  0
  1  2  2  0
  2  3  1  0
  2  4  1  0
  4  5  1  0
  5  6  1  0
  6  7  1  0
  7  8  1  0
  7  9  1  0
  9 10  1  1
 10 11  1  0
 11 12  1  0
 12 13  1  0
 12 14  1  0
  9 14  1  0
 14 15  1  6
  4 15  1  0
 14 16  1  0
  9 16  1  0
M  END
>  <cdk:Title>  (67) 
(2S_5R_8S)-2_8-Dimethyl-5-(prop-1-en-2-yl)-11-oxatricyclo[5.3.1.0??_???]undecane

>  <1A2>  (67) 
N

>  <2A6>  (67) 
N

>  <2B6>  (67) 
N

>  <2C8>  (67) 
N

>  <2C9>  (67) 
N

>  <2C19>  (67) 
N

>  <2D6>  (67) 
N

>  <2E1>  (67) 
N

>  <3A4>  (67) 
N

>  <Citation>  (67) 
Nucleic Acids Res. 2018. Jan 4;46(D1):D608-17. PMID:29140435
Nucleic Acids Res. 2018 Jan 4;46(D1):D1074-D1082. PMID:29126136
Nucleic Acids Res., 45:D380-388 (2017).  PMID:27924025
Nucleic Acids Res. 2016 Jan 4;44(D1):D1202-13. PMID:26400175

>  <ROMol>  (67) 
<rdkit.Chem.rdchem.Mol object at 0x7c29060ec510>

>  <Drug_like>  (67) 
True

$$$$
Glu-tyr
     RDKit          2D

 22 22  0  0  0  0  0  0  0  0999 V2000
    0.0088    6.5532    0.0000 N   0  0  0  0  0  0  0  0  0  0  0  0
    0.0014    5.0532    0.0000 C   0  0  0  0  0  0  0  0  0  0  0  0
    1.2967    4.2968    0.0000 O   0  0  0  0  0  0  0  0  0  0  0  0
   -1.3013    4.3096    0.0000 C   0  0  0  0  0  0  0  0  0  0  0  0
   -0.3428    3.1558    0.0000 N   0  0  0  0  0  0  0  0  0  0  0  0
   -3.0112    5.3080    0.0000 C   0  0  0  0  0  0  0  0  0  0  0  0
   -4.3139    4.5644    0.0000 C   0  0  0  0  0  0  0  0  0  0  0  0
   -5.6092    5.3208    0.0000 C   0  0  0  0  0  0  0  0  0  0  0  0
   -6.9119    4.5772    0.0000 O   0  0  0  0  0  0  0  0  0  0  0  0
   -5.6018    6.8208    0.0000 O   0  0  0  0  0  0  0  0  0  0  0  0
    1.3115    7.2968    0.0000 C   0  0  0  0  0  0  0  0  0  0  0  0
    2.6068    6.5404    0.0000 C   0  0  0  0  0  0  0  0  0  0  0  0
    3.9095    7.2840    0.0000 C   0  0  0  0  0  0  0  0  0  0  0  0
    5.2011    6.5212    0.0000 C   0  0  0  0  0  0  0  0  0  0  0  0
    6.4927    7.2334    0.0000 C   0  0  0  0  0  0  0  0  0  0  0  0
    6.5334    8.7772    0.0000 C   0  0  0  0  0  0  0  0  0  0  0  0
    7.8458    9.5036    0.0000 O   0  0  0  0  0  0  0  0  0  0  0  0
    5.2418    9.5400    0.0000 C   0  0  0  0  0  0  0  0  0  0  0  0
    3.9095    8.7589    0.0000 C   0  0  0  0  0  0  0  0  0  0  0  0
    0.3530    8.4506    0.0000 C   0  0  0  0  0  0  0  0  0  0  0  0
    0.8729    9.8576    0.0000 O   0  0  0  0  0  0  0  0  0  0  0  0
   -1.1255    8.1974    0.0000 O   0  0  0  0  0  0  0  0  0  0  0  0
  1  2  1  0
  2  3  2  0
  2  4  1  0
  4  5  1  0
  4  6  1  0
  6  7  1  0
  7  8  1  0
  8  9  2  0
  8 10  1  0
  1 11  1  0
 11 12  1  0
 12 13  1  0
 13 14  2  0
 14 15  1  0
 15 16  2  0
 16 17  1  0
 16 18  1  0
 18 19  2  0
 13 19  1  0
 11 20  1  0
 20 21  1  0
 20 22  2  0
M  CHG  1  10  -1
M  END
>  <cdk:Title>  (68) 
Glu-tyr

>  <1A2>  (68) 
N

>  <2A6>  (68) 
N

>  <2B6>  (68) 
N

>  <2C8>  (68) 
N

>  <2C9>  (68) 
N

>  <2C19>  (68) 
N

>  <2D6>  (68) 
N

>  <2E1>  (68) 
N

>  <3A4>  (68) 
N

>  <Citation>  (68) 
Nucleic Acids Res. 2018. Jan 4;46(D1):D608-17. PMID:29140435
Nucleic Acids Res. 2018 Jan 4;46(D1):D1074-D1082. PMID:29126136
Nucleic Acids Res., 45:D380-388 (2017).  PMID:27924025
Nucleic Acids Res. 2016 Jan 4;44(D1):D1202-13. PMID:26400175

>  <ROMol>  (68) 
<rdkit.Chem.rdchem.Mol object at 0x7c29060ec580>

>  <Drug_like>  (68) 
True

$$$$
SAMBUBIOSE
     RDKit          2D

 21 22  0  0  0  0  0  0  0  0999 V2000
    7.3766    0.9729    0.0000 O   0  0  0  0  0  0  0  0  0  0  0  0
    5.8997    1.2354    0.0000 C   0  0  0  0  0  0  0  0  0  0  0  0
    4.9340    0.0877    0.0000 C   0  0  0  0  0  0  0  0  0  0  0  0
    3.9707    1.2386    0.0000 O   0  0  0  0  0  0  0  0  0  0  0  0
    2.4734    0.9877    0.0000 C   0  0  0  0  0  0  0  0  0  0  0  0
    0.9972    1.2539    0.0000 O   0  0  0  0  0  0  0  0  0  0  0  0
    1.9616   -0.4116    0.0000 C   0  0  0  0  0  0  0  0  0  0  0  0
    2.9402   -1.5788    0.0000 C   0  0  0  0  0  0  0  0  0  0  0  0
    4.4221   -1.3116    0.0000 C   0  0  0  0  0  0  0  0  0  0  0  0
    5.8994   -1.5718    0.0000 O   0  0  0  0  0  0  0  0  0  0  0  0
    3.4566   -2.9871    0.0000 O   0  0  0  0  0  0  0  0  0  0  0  0
    0.3788   -2.2948    0.0000 O   0  0  0  0  0  0  0  0  0  0  0  0
   -1.0982   -2.0332    0.0000 C   0  0  0  0  0  0  0  0  0  0  0  0
   -2.3975   -1.2820    0.0000 O   0  0  0  0  0  0  0  0  0  0  0  0
   -3.6982   -2.0308    0.0000 C   0  0  0  0  0  0  0  0  0  0  0  0
   -3.6995   -3.5308    0.0000 C   0  0  0  0  0  0  0  0  0  0  0  0
   -5.1765   -3.2692    0.0000 O   0  0  0  0  0  0  0  0  0  0  0  0
   -2.4002   -4.2820    0.0000 C   0  0  0  0  0  0  0  0  0  0  0  0
   -1.0995   -3.5332    0.0000 C   0  0  0  0  0  0  0  0  0  0  0  0
   -0.5881   -4.9433    0.0000 O   0  0  0  0  0  0  0  0  0  0  0  0
   -3.3653   -5.4303    0.0000 O   0  0  0  0  0  0  0  0  0  0  0  0
  1  2  1  0
  2  3  1  0
  3  4  1  0
  4  5  1  0
  5  6  1  0
  5  7  1  0
  7  8  1  0
  8  9  1  0
  3  9  1  0
  9 10  1  0
  8 11  1  0
  7 12  1  0
 12 13  1  0
 13 14  1  0
 14 15  1  0
 15 16  1  0
 16 17  1  0
 16 18  1  0
 18 19  1  0
 13 19  1  0
 19 20  1  0
 18 21  1  0
M  END
>  <cdk:Title>  (69) 
SAMBUBIOSE

>  <1A2>  (69) 
N

>  <2A6>  (69) 
N

>  <2B6>  (69) 
N

>  <2C8>  (69) 
N

>  <2C9>  (69) 
N

>  <2C19>  (69) 
N

>  <2D6>  (69) 
N

>  <2E1>  (69) 
N

>  <3A4>  (69) 
N

>  <Citation>  (69) 
Nucleic Acids Res. 2018. Jan 4;46(D1):D608-17. PMID:29140435
Nucleic Acids Res. 2018 Jan 4;46(D1):D1074-D1082. PMID:29126136
Nucleic Acids Res., 45:D380-388 (2017).  PMID:27924025
Nucleic Acids Res. 2016 Jan 4;44(D1):D1202-13. PMID:26400175

>  <ROMol>  (69) 
<rdkit.Chem.rdchem.Mol object at 0x7c29060ec6d0>

>  <Drug_like>  (69) 
True

$$$$
(3S_6E)-6-Caryophyllen-15-al
     RDKit          2D

 16 17  0  0  0  0  0  0  0  0999 V2000
    1.1962    3.9944    0.0000 C   0  0  0  0  0  0  0  0  0  0  0  0
    2.4962    4.7444    0.0000 C   0  0  0  0  0  0  0  0  0  0  0  0
    3.7962    3.9944    0.0000 C   0  0  0  0  0  0  0  0  0  0  0  0
    3.7962    2.4944    0.0000 C   0  0  0  0  0  0  0  0  0  0  0  0
    4.8011   -0.2685    0.0000 C   0  0  0  0  0  0  0  0  0  0  0  0
    6.2783   -0.5293    0.0000 O   0  0  0  0  0  0  0  0  0  0  0  0
    2.4962    1.7444    0.0000 C   0  0  0  0  0  0  0  0  0  0  0  0
    2.0462    0.2444    0.0000 C   0  0  0  0  0  0  0  0  0  0  0  0
    0.3462    0.2444    0.0000 C   0  0  0  0  0  0  0  0  0  0  0  0
   -0.1038    1.7444    0.0000 C   0  0  0  0  0  0  0  0  0  0  0  0
   -1.4038    2.4944    0.0000 C   0  0  0  0  0  0  0  0  0  0  0  0
   -1.4038    3.9944    0.0000 C   0  0  0  0  0  0  0  0  0  0  0  0
   -0.1038    4.7444    0.0000 C   0  0  0  0  0  0  0  0  0  0  0  0
   -0.1038    6.7244    0.0000 C   0  0  0  0  0  0  0  0  0  0  0  0
   -2.5385   -0.3233    0.0000 C   0  0  0  0  0  0  0  0  0  0  0  0
    0.5848   -2.2040    0.0000 C   0  0  0  0  0  0  0  0  0  0  0  0
  1  2  1  0
  2  3  1  0
  3  4  1  0
  4  5  1  0
  5  6  2  0
  4  7  1  0
  7  8  1  0
  8  9  1  0
  9 10  1  0
  7 10  1  0
 10 11  1  0
 11 12  1  0
 12 13  1  0
  1 13  2  0
 13 14  1  0
  9 15  1  0
  9 16  1  0
M  END
>  <cdk:Title>  (70) 
(3S_6E)-6-Caryophyllen-15-al

>  <1A2>  (70) 
N

>  <2A6>  (70) 
N

>  <2B6>  (70) 
N

>  <2C8>  (70) 
N

>  <2C9>  (70) 
N

>  <2C19>  (70) 
N

>  <2D6>  (70) 
N

>  <2E1>  (70) 
N

>  <3A4>  (70) 
N

>  <Citation>  (70) 
Nucleic Acids Res. 2018. Jan 4;46(D1):D608-17. PMID:29140435
Nucleic Acids Res. 2018 Jan 4;46(D1):D1074-D1082. PMID:29126136
Nucleic Acids Res., 45:D380-388 (2017).  PMID:27924025
Nucleic Acids Res. 2016 Jan 4;44(D1):D1202-13. PMID:26400175

>  <ROMol>  (70) 
<rdkit.Chem.rdchem.Mol object at 0x7c29060ec740>

>  <Drug_like>  (70) 
True

$$$$
CTK1g9675
     RDKit          2D

 40 43  0  0  0  0  0  0  0  0999 V2000
   11.0923   10.8816    0.0000 C   0  0  0  0  0  0  0  0  0  0  0  0
    9.7938   11.6324    0.0000 C   0  0  0  0  0  0  0  0  0  0  0  0
    9.7947   13.1324    0.0000 O   0  0  0  0  0  0  0  0  0  0  0  0
    8.4942   10.8833    0.0000 O   0  0  0  0  0  0  0  0  0  0  0  0
    6.3646   12.1147    0.0000 C   0  0  0  0  0  0  0  0  0  0  0  0
    4.7846   14.0002    0.0000 C   0  0  0  0  0  0  0  0  0  0  0  0
    7.3296   13.2631    0.0000 C   0  0  0  0  0  0  0  0  0  0  0  0
    4.2334   10.8861    0.0000 C   0  0  0  0  0  0  0  0  0  0  0  0
    4.2324    9.3861    0.0000 C   0  0  0  0  0  0  0  0  0  0  0  0
    2.9329    8.6369    0.0000 C   0  0  0  0  0  0  0  0  0  0  0  0
    2.9319    7.1369    0.0000 C   0  0  0  0  0  0  0  0  0  0  0  0
    3.4440    5.7271    0.0000 C   0  0  0  0  0  0  0  0  0  0  0  0
    0.3848    5.6686    0.0000 C   0  0  0  0  0  0  0  0  0  0  0  0
   -0.2213    7.0365    0.0000 C   0  0  0  0  0  0  0  0  0  0  0  0
   -1.7094    6.8814    0.0000 C   0  0  0  0  0  0  0  0  0  0  0  0
   -2.0280    5.4134    0.0000 C   0  0  0  0  0  0  0  0  0  0  0  0
   -4.0647    7.5336    0.0000 C   0  0  0  0  0  0  0  0  0  0  0  0
   -3.3285    4.6643    0.0000 C   0  0  0  0  0  0  0  0  0  0  0  0
   -4.6265    5.4160    0.0000 C   0  0  0  0  0  0  0  0  0  0  0  0
   -5.9270    4.6669    0.0000 C   0  0  0  0  0  0  0  0  0  0  0  0
   -5.9295    3.1660    0.0000 C   0  0  0  0  0  0  0  0  0  0  0  0
   -4.6314    2.4143    0.0000 C   0  0  0  0  0  0  0  0  0  0  0  0
   -4.6339    0.9135    0.0000 C   0  0  0  0  0  0  0  0  0  0  0  0
   -5.9344    0.1644    0.0000 C   0  0  0  0  0  0  0  0  0  0  0  0
   -7.2325    0.9161    0.0000 C   0  0  0  0  0  0  0  0  0  0  0  0
   -7.2300    2.4169    0.0000 C   0  0  0  0  0  0  0  0  0  0  0  0
   -9.6532    1.9932    0.0000 C   0  0  0  0  0  0  0  0  0  0  0  0
   -8.2322    5.1808    0.0000 C   0  0  0  0  0  0  0  0  0  0  0  0
   -7.7475   -0.4927    0.0000 O   0  0  0  0  0  0  0  0  0  0  0  0
   -3.3309    3.1634    0.0000 C   0  0  0  0  0  0  0  0  0  0  0  0
   -3.6770    1.2139    0.0000 C   0  0  0  0  0  0  0  0  0  0  0  0
   -2.5291    0.2484    0.0000 O   0  0  0  0  0  0  0  0  0  0  0  0
   -2.0329    2.4117    0.0000 C   0  0  0  0  0  0  0  0  0  0  0  0
   -0.7324    3.1608    0.0000 C   0  0  0  0  0  0  0  0  0  0  0  0
   -0.7299    4.6617    0.0000 C   0  0  0  0  0  0  0  0  0  0  0  0
    0.9981    2.2831    0.0000 C   0  0  0  0  0  0  0  0  0  0  0  0
   -2.0346    0.9117    0.0000 O   0  0  0  0  0  0  0  0  0  0  0  0
   -0.5315    8.5041    0.0000 O   0  0  0  0  0  0  0  0  0  0  0  0
    4.4092    7.3964    0.0000 O   0  0  0  0  0  0  0  0  0  0  0  0
    1.6343    9.3878    0.0000 O   0  0  0  0  0  0  0  0  0  0  0  0
  1  2  1  0
  2  3  2  0
  2  4  1  0
  4  5  1  0
  5  6  1  0
  5  7  1  0
  5  8  1  0
  8  9  2  0
  9 10  1  0
 10 11  1  0
 11 12  1  1
 11 13  1  0
 13 14  1  0
 14 15  1  0
 15 16  1  0
 16 17  1  6
 16 18  1  0
 18 19  1  0
 19 20  1  0
 20 21  2  0
 21 22  1  0
 22 23  1  0
 23 24  1  0
 24 25  1  0
 25 26  1  0
 21 26  1  0
 26 27  1  0
 26 28  1  0
 25 29  1  0
 22 30  1  0
 18 30  1  0
 30 31  1  1
 31 32  1  0
 30 33  1  0
 33 34  1  0
 34 35  1  0
 13 35  1  0
 16 35  1  0
 35 36  1  6
 33 37  2  0
 14 38  1  0
 11 39  1  0
 10 40  2  0
M  END
>  <cdk:Title>  (71) 
CTK1g9675

>  <1A2>  (71) 
N

>  <2A6>  (71) 
N

>  <2B6>  (71) 
N

>  <2C8>  (71) 
N

>  <2C9>  (71) 
N

>  <2C19>  (71) 
N

>  <2D6>  (71) 
N

>  <2E1>  (71) 
N

>  <3A4>  (71) 
N

>  <Citation>  (71) 
Nucleic Acids Res. 2018. Jan 4;46(D1):D608-17. PMID:29140435
Nucleic Acids Res. 2018 Jan 4;46(D1):D1074-D1082. PMID:29126136
Nucleic Acids Res., 45:D380-388 (2017).  PMID:27924025
Nucleic Acids Res. 2016 Jan 4;44(D1):D1202-13. PMID:26400175

>  <ROMol>  (71) 
<rdkit.Chem.rdchem.Mol object at 0x7c29060ec820>

>  <Drug_like>  (71) 
True

$$$$
Acorusnol
     RDKit          2D

 17 18  0  0  0  0  0  0  0  0999 V2000
   -6.6253    3.7942    0.0000 C   0  0  0  0  0  0  0  0  0  0  0  0
   -3.7298    4.3041    0.0000 C   0  0  0  0  0  0  0  0  0  0  0  0
   -2.1481    6.1882    0.0000 C   0  0  0  0  0  0  0  0  0  0  0  0
   -2.7249    1.5412    0.0000 C   0  0  0  0  0  0  0  0  0  0  0  0
   -2.7249    0.0412    0.0000 C   0  0  0  0  0  0  0  0  0  0  0  0
   -1.4249   -0.7088    0.0000 C   0  0  0  0  0  0  0  0  0  0  0  0
   -0.1249    0.0412    0.0000 C   0  0  0  0  0  0  0  0  0  0  0  0
   -0.1249   -2.8988    0.0000 C   0  0  0  0  0  0  0  0  0  0  0  0
    1.1751   -0.7088    0.0000 C   0  0  0  0  0  0  0  0  0  0  0  0
    2.4751    0.0412    0.0000 C   0  0  0  0  0  0  0  0  0  0  0  0
    2.4751    1.5412    0.0000 C   0  0  0  0  0  0  0  0  0  0  0  0
    1.1751    2.2912    0.0000 C   0  0  0  0  0  0  0  0  0  0  0  0
    1.1751    3.7912    0.0000 C   0  0  0  0  0  0  0  0  0  0  0  0
   -0.1249    1.5412    0.0000 C   0  0  0  0  0  0  0  0  0  0  0  0
   -1.4249    2.2912    0.0000 C   0  0  0  0  0  0  0  0  0  0  0  0
   -1.4249    3.7912    0.0000 O   0  0  0  0  0  0  0  0  0  0  0  0
    0.2111   -1.8580    0.0000 O   0  0  0  0  0  0  0  0  0  0  0  0
  1  2  1  0
  2  3  1  0
  2  4  1  0
  4  5  1  0
  5  6  1  0
  6  7  1  0
  7  8  1  1
  7  9  1  0
  9 10  1  0
 10 11  1  0
 11 12  1  0
 12 13  1  0
 12 14  2  0
  7 14  1  0
 14 15  1  0
  4 15  1  0
 15 16  2  0
  9 17  1  0
M  END
>  <cdk:Title>  (72) 
Acorusnol

>  <1A2>  (72) 
N

>  <2A6>  (72) 
N

>  <2B6>  (72) 
N

>  <2C8>  (72) 
N

>  <2C9>  (72) 
N

>  <2C19>  (72) 
N

>  <2D6>  (72) 
N

>  <2E1>  (72) 
N

>  <3A4>  (72) 
N

>  <Citation>  (72) 
Nucleic Acids Res. 2018. Jan 4;46(D1):D608-17. PMID:29140435
Nucleic Acids Res. 2018 Jan 4;46(D1):D1074-D1082. PMID:29126136
Nucleic Acids Res., 45:D380-388 (2017).  PMID:27924025
Nucleic Acids Res. 2016 Jan 4;44(D1):D1202-13. PMID:26400175

>  <ROMol>  (72) 
<rdkit.Chem.rdchem.Mol object at 0x7c29060ec9e0>

>  <Drug_like>  (72) 
True

$$$$
AC1NSVP1
     RDKit          2D

 34 37  0  0  0  0  0  0  0  0999 V2000
   -2.9067   -1.6407    0.0000 C   0  0  0  0  0  0  0  0  0  0  0  0
   -1.6067   -2.3907    0.0000 C   0  0  0  0  0  0  0  0  0  0  0  0
   -0.3067   -1.6407    0.0000 C   0  0  0  0  0  0  0  0  0  0  0  0
    0.2032   -4.5361    0.0000 O   0  0  0  0  0  0  0  0  0  0  0  0
   -0.3067   -0.1407    0.0000 C   0  0  0  0  0  0  0  0  0  0  0  0
   -1.6067    0.6093    0.0000 C   0  0  0  0  0  0  0  0  0  0  0  0
   -1.6067    2.1093    0.0000 C   0  0  0  0  0  0  0  0  0  0  0  0
   -0.3067    2.8593    0.0000 C   0  0  0  0  0  0  0  0  0  0  0  0
    0.9933    2.1093    0.0000 C   0  0  0  0  0  0  0  0  0  0  0  0
    2.4233    2.5693    0.0000 C   0  0  0  0  0  0  0  0  0  0  0  0
    3.3033    1.3593    0.0000 C   0  0  0  0  0  0  0  0  0  0  0  0
    2.4233    0.1493    0.0000 C   0  0  0  0  0  0  0  0  0  0  0  0
    0.9933    0.6093    0.0000 C   0  0  0  0  0  0  0  0  0  0  0  0
    1.8074   -2.2157    0.0000 C   0  0  0  0  0  0  0  0  0  0  0  0
    4.9704    4.0376    0.0000 C   0  0  0  0  0  0  0  0  0  0  0  0
    3.9667    6.8010    0.0000 C   0  0  0  0  0  0  0  0  0  0  0  0
    6.6845    3.0465    0.0000 C   0  0  0  0  0  0  0  0  0  0  0  0
    7.9840    3.7956    0.0000 C   0  0  0  0  0  0  0  0  0  0  0  0
    9.2825    3.0448    0.0000 C   0  0  0  0  0  0  0  0  0  0  0  0
   10.5821    3.7939    0.0000 C   0  0  0  0  0  0  0  0  0  0  0  0
   10.5831    5.2939    0.0000 C   0  0  0  0  0  0  0  0  0  0  0  0
   11.8806    3.0431    0.0000 C   0  0  0  0  0  0  0  0  0  0  0  0
   11.8796    1.5431    0.0000 O   0  0  0  0  0  0  0  0  0  0  0  0
   13.1801    3.7922    0.0000 O   0  0  0  0  0  0  0  0  0  0  0  0
    1.3044    5.0328    0.0000 C   0  0  0  0  0  0  0  0  0  0  0  0
   -2.9067   -0.1407    0.0000 C   0  0  0  0  0  0  0  0  0  0  0  0
   -2.9067    2.7993    0.0000 C   0  0  0  0  0  0  0  0  0  0  0  0
   -4.2067    0.6093    0.0000 C   0  0  0  0  0  0  0  0  0  0  0  0
   -5.5067   -0.1407    0.0000 C   0  0  0  0  0  0  0  0  0  0  0  0
   -5.5067   -1.6407    0.0000 C   0  0  0  0  0  0  0  0  0  0  0  0
   -6.9839   -1.3804    0.0000 O   0  0  0  0  0  0  0  0  0  0  0  0
   -4.2067   -2.3907    0.0000 C   0  0  0  0  0  0  0  0  0  0  0  0
   -6.0963   -4.6431    0.0000 C   0  0  0  0  0  0  0  0  0  0  0  0
   -2.6256   -4.2753    0.0000 C   0  0  0  0  0  0  0  0  0  0  0  0
  1  2  1  0
  2  3  1  0
  3  4  1  0
  3  5  1  0
  5  6  2  0
  6  7  1  0
  7  8  1  0
  8  9  1  0
  9 10  1  0
 10 11  1  0
 11 12  1  0
 12 13  1  0
  9 13  1  0
  5 13  1  0
 13 14  1  6
 10 15  1  0
 15 16  1  0
 15 17  1  0
 17 18  1  0
 18 19  1  0
 19 20  2  0
 20 21  1  0
 20 22  1  0
 22 23  2  0
 22 24  1  0
  9 25  1  6
  6 26  1  0
  1 26  1  0
 26 27  1  1
 26 28  1  0
 28 29  1  0
 29 30  1  0
 30 31  1  0
 30 32  1  0
  1 32  1  0
 32 33  1  0
 32 34  1  0
M  END
>  <cdk:Title>  (73) 
AC1NSVP1

>  <1A2>  (73) 
N

>  <2A6>  (73) 
N

>  <2B6>  (73) 
N

>  <2C8>  (73) 
N

>  <2C9>  (73) 
N

>  <2C19>  (73) 
N

>  <2D6>  (73) 
N

>  <2E1>  (73) 
N

>  <3A4>  (73) 
N

>  <Citation>  (73) 
Nucleic Acids Res. 2018. Jan 4;46(D1):D608-17. PMID:29140435
Nucleic Acids Res. 2018 Jan 4;46(D1):D1074-D1082. PMID:29126136
Nucleic Acids Res., 45:D380-388 (2017).  PMID:27924025
Nucleic Acids Res. 2016 Jan 4;44(D1):D1202-13. PMID:26400175

>  <ROMol>  (73) 
<rdkit.Chem.rdchem.Mol object at 0x7c29060ecb30>

>  <Drug_like>  (73) 
True

$$$$
2-[(1_2_3_4_4a_7-Hexahydro-4aalpha_8-dimethyl-7-oxonaphthalen)-2alpha-yl]acrylic
     RDKit          2D

 18 19  0  0  0  0  0  0  0  0999 V2000
   -2.6210    6.1052    0.0000 C   0  0  0  0  0  0  0  0  0  0  0  0
   -3.5854    4.9563    0.0000 C   0  0  0  0  0  0  0  0  0  0  0  0
   -2.7446    2.6445    0.0000 C   0  0  0  0  0  0  0  0  0  0  0  0
   -2.7446    1.1445    0.0000 C   0  0  0  0  0  0  0  0  0  0  0  0
   -1.4446    0.3945    0.0000 C   0  0  0  0  0  0  0  0  0  0  0  0
   -0.1446    1.1445    0.0000 C   0  0  0  0  0  0  0  0  0  0  0  0
   -0.1446   -1.7955    0.0000 C   0  0  0  0  0  0  0  0  0  0  0  0
    1.1554    0.3945    0.0000 C   0  0  0  0  0  0  0  0  0  0  0  0
    2.4554    1.1445    0.0000 C   0  0  0  0  0  0  0  0  0  0  0  0
    2.4554    2.6445    0.0000 C   0  0  0  0  0  0  0  0  0  0  0  0
    1.1554    3.3945    0.0000 C   0  0  0  0  0  0  0  0  0  0  0  0
    1.1554    4.8945    0.0000 C   0  0  0  0  0  0  0  0  0  0  0  0
   -0.1446    2.6445    0.0000 C   0  0  0  0  0  0  0  0  0  0  0  0
   -1.4446    3.3945    0.0000 C   0  0  0  0  0  0  0  0  0  0  0  0
    3.7544    3.3947    0.0000 O   0  0  0  0  0  0  0  0  0  0  0  0
   -5.0626    5.2171    0.0000 C   0  0  0  0  0  0  0  0  0  0  0  0
   -6.0270    4.0682    0.0000 O   0  0  0  0  0  0  0  0  0  0  0  0
   -5.5753    6.6267    0.0000 O   0  0  0  0  0  0  0  0  0  0  0  0
  1  2  2  0
  2  3  1  0
  3  4  1  0
  4  5  1  0
  5  6  1  0
  6  7  1  6
  6  8  1  0
  8  9  2  0
  9 10  1  0
 10 11  1  0
 11 12  1  0
 11 13  2  0
  6 13  1  0
 13 14  1  0
  3 14  1  0
 10 15  2  0
  2 16  1  0
 16 17  2  0
 16 18  1  0
M  END
>  <cdk:Title>  (74) 
2-[(1_2_3_4_4a_7-Hexahydro-4aalpha_8-dimethyl-7-oxonaphthalen)-2alpha-yl]acrylic acid

>  <1A2>  (74) 
N

>  <2A6>  (74) 
N

>  <2B6>  (74) 
N

>  <2C8>  (74) 
N

>  <2C9>  (74) 
N

>  <2C19>  (74) 
N

>  <2D6>  (74) 
N

>  <2E1>  (74) 
N

>  <3A4>  (74) 
N

>  <Citation>  (74) 
Nucleic Acids Res. 2018. Jan 4;46(D1):D608-17. PMID:29140435
Nucleic Acids Res. 2018 Jan 4;46(D1):D1074-D1082. PMID:29126136
Nucleic Acids Res., 45:D380-388 (2017).  PMID:27924025
Nucleic Acids Res. 2016 Jan 4;44(D1):D1202-13. PMID:26400175

>  <ROMol>  (74) 
<rdkit.Chem.rdchem.Mol object at 0x7c29060eccf0>

>  <Drug_like>  (74) 
True

$$$$
Panaquinquecol 7
     RDKit          2D

 20 20  0  0  0  0  0  0  0  0999 V2000
  -11.7761   -3.0044    0.0000 C   0  0  0  0  0  0  0  0  0  0  0  0
  -10.3666   -3.5176    0.0000 C   0  0  0  0  0  0  0  0  0  0  0  0
   -9.2174   -2.5535    0.0000 C   0  0  0  0  0  0  0  0  0  0  0  0
   -6.9059   -3.3952    0.0000 C   0  0  0  0  0  0  0  0  0  0  0  0
   -5.3890   -2.1226    0.0000 C   0  0  0  0  0  0  0  0  0  0  0  0
   -3.5285   -2.8000    0.0000 C   0  0  0  0  0  0  0  0  0  0  0  0
   -2.3793   -1.8359    0.0000 C   0  0  0  0  0  0  0  0  0  0  0  0
   -0.5188   -2.5133    0.0000 C   0  0  0  0  0  0  0  0  0  0  0  0
    0.2312   -1.2143    0.0000 C   0  0  0  0  0  0  0  0  0  0  0  0
    1.3801   -0.2499    0.0000 C   0  0  0  0  0  0  0  0  0  0  0  0
    2.7897   -0.7626    0.0000 C   0  0  0  0  0  0  0  0  0  0  0  0
    4.1994   -1.2753    0.0000 C   0  0  0  0  0  0  0  0  0  0  0  0
    5.6090   -1.7881    0.0000 C   0  0  0  0  0  0  0  0  0  0  0  0
    7.0187   -2.3008    0.0000 C   0  0  0  0  0  0  0  0  0  0  0  0
    8.4283   -2.8135    0.0000 C   0  0  0  0  0  0  0  0  0  0  0  0
    9.5772   -1.8491    0.0000 C   0  0  0  0  0  0  0  0  0  0  0  0
   10.9868   -2.3618    0.0000 C   0  0  0  0  0  0  0  0  0  0  0  0
   12.1357   -1.3974    0.0000 O   0  0  0  0  0  0  0  0  0  0  0  0
    8.6891   -4.2907    0.0000 O   0  0  0  0  0  0  0  0  0  0  0  0
    0.9821   -2.5138    0.0000 O   0  0  0  0  0  0  0  0  0  0  0  0
  1  2  1  0
  2  3  1  0
  3  4  1  0
  4  5  1  0
  5  6  1  0
  6  7  1  0
  7  8  1  0
  8  9  1  0
  9 10  1  0
 10 11  1  0
 11 12  3  0
 12 13  1  0
 13 14  3  0
 14 15  1  0
 15 16  1  0
 16 17  1  0
 17 18  1  0
 15 19  2  0
  9 20  1  0
  8 20  1  0
M  END
>  <cdk:Title>  (75) 
Panaquinquecol 7

>  <1A2>  (75) 
N

>  <2A6>  (75) 
N

>  <2B6>  (75) 
N

>  <2C8>  (75) 
N

>  <2C9>  (75) 
N

>  <2C19>  (75) 
N

>  <2D6>  (75) 
N

>  <2E1>  (75) 
N

>  <3A4>  (75) 
N

>  <Citation>  (75) 
Nucleic Acids Res. 2018. Jan 4;46(D1):D608-17. PMID:29140435
Nucleic Acids Res. 2018 Jan 4;46(D1):D1074-D1082. PMID:29126136
Nucleic Acids Res., 45:D380-388 (2017).  PMID:27924025
Nucleic Acids Res. 2016 Jan 4;44(D1):D1202-13. PMID:26400175

>  <ROMol>  (75) 
<rdkit.Chem.rdchem.Mol object at 0x7c29060ece40>

>  <Drug_like>  (75) 
True

$$$$
AC1NSV1Z
     RDKit          2D

 27 29  0  0  0  0  0  0  0  0999 V2000
   -1.2982    6.0019    0.0000 O   0  0  0  0  0  0  0  0  0  0  0  0
   -2.5980    5.2515    0.0000 C   0  0  0  0  0  0  0  0  0  0  0  0
   -3.8968    6.0019    0.0000 C   0  0  0  0  0  0  0  0  0  0  0  0
   -3.8958    7.5027    0.0000 C   0  0  0  0  0  0  0  0  0  0  0  0
   -2.5960    8.2531    0.0000 C   0  0  0  0  0  0  0  0  0  0  0  0
   -1.2972    7.5027    0.0000 C   0  0  0  0  0  0  0  0  0  0  0  0
    0.0022    8.2521    0.0000 O   0  0  0  0  0  0  0  0  0  0  0  0
   -5.1965    5.2515    0.0000 C   0  0  0  0  0  0  0  0  0  0  0  0
   -5.1975    3.7506    0.0000 C   0  0  0  0  0  0  0  0  0  0  0  0
   -3.8987    3.0002    0.0000 C   0  0  0  0  0  0  0  0  0  0  0  0
   -3.8989    1.5002    0.0000 O   0  0  0  0  0  0  0  0  0  0  0  0
   -5.1981    0.7504    0.0000 C   0  0  0  0  0  0  0  0  0  0  0  0
   -6.6920    0.4801    0.0000 O   0  0  0  0  0  0  0  0  0  0  0  0
   -7.2093   -0.9287    0.0000 C   0  0  0  0  0  0  0  0  0  0  0  0
   -8.5063   -0.1753    0.0000 C   0  0  0  0  0  0  0  0  0  0  0  0
   -9.8073   -0.9218    0.0000 O   0  0  0  0  0  0  0  0  0  0  0  0
   -6.2543   -2.0725    0.0000 C   0  0  0  0  0  0  0  0  0  0  0  0
   -4.7693   -1.8227    0.0000 C   0  0  0  0  0  0  0  0  0  0  0  0
   -4.2431   -0.3933    0.0000 C   0  0  0  0  0  0  0  0  0  0  0  0
   -2.9465   -1.1476    0.0000 O   0  0  0  0  0  0  0  0  0  0  0  0
   -4.7790   -3.3227    0.0000 O   0  0  0  0  0  0  0  0  0  0  0  0
   -7.5565   -2.8169    0.0000 O   0  0  0  0  0  0  0  0  0  0  0  0
   -2.5989    3.7506    0.0000 C   0  0  0  0  0  0  0  0  0  0  0  0
   -1.3001    3.0002    0.0000 O   0  0  0  0  0  0  0  0  0  0  0  0
   -0.0008    3.7498    0.0000 C   0  0  0  0  0  0  0  0  0  0  0  0
   -6.4969    3.0012    0.0000 O   0  0  0  0  0  0  0  0  0  0  0  0
   -7.7956    3.7519    0.0000 C   0  0  0  0  0  0  0  0  0  0  0  0
  1  2  1  0
  2  3  2  0
  3  4  1  0
  4  5  2  0
  5  6  1  0
  1  6  1  0
  6  7  2  0
  3  8  1  0
  8  9  2  0
  9 10  1  0
 10 11  1  0
 11 12  1  0
 12 13  1  0
 13 14  1  0
 14 15  1  0
 15 16  1  0
 14 17  1  0
 17 18  1  0
 18 19  1  0
 12 19  1  0
 19 20  1  0
 18 21  1  0
 17 22  1  0
 10 23  2  0
  2 23  1  0
 23 24  1  0
 24 25  1  0
  9 26  1  0
 26 27  1  0
M  END
>  <cdk:Title>  (76) 
AC1NSV1Z

>  <1A2>  (76) 
N

>  <2A6>  (76) 
N

>  <2B6>  (76) 
N

>  <2C8>  (76) 
N

>  <2C9>  (76) 
N

>  <2C19>  (76) 
N

>  <2D6>  (76) 
N

>  <2E1>  (76) 
N

>  <3A4>  (76) 
N

>  <Citation>  (76) 
Nucleic Acids Res. 2018. Jan 4;46(D1):D608-17. PMID:29140435
Nucleic Acids Res. 2018 Jan 4;46(D1):D1074-D1082. PMID:29126136
Nucleic Acids Res., 45:D380-388 (2017).  PMID:27924025
Nucleic Acids Res. 2016 Jan 4;44(D1):D1202-13. PMID:26400175

>  <ROMol>  (76) 
<rdkit.Chem.rdchem.Mol object at 0x7c29060ecf20>

>  <Drug_like>  (76) 
True

$$$$
1-(2_2-Dimethylchromen-6-yl)ethanol
     RDKit          2D

 15 16  0  0  0  0  0  0  0  0999 V2000
   -5.6137   -0.5103    0.0000 C   0  0  0  0  0  0  0  0  0  0  0  0
   -4.3146   -1.2601    0.0000 C   0  0  0  0  0  0  0  0  0  0  0  0
   -3.0157   -0.5099    0.0000 C   0  0  0  0  0  0  0  0  0  0  0  0
   -3.0157    0.9901    0.0000 C   0  0  0  0  0  0  0  0  0  0  0  0
   -1.7157    1.7401    0.0000 C   0  0  0  0  0  0  0  0  0  0  0  0
   -0.4157    0.9901    0.0000 C   0  0  0  0  0  0  0  0  0  0  0  0
   -0.4157   -0.5099    0.0000 C   0  0  0  0  0  0  0  0  0  0  0  0
    0.8843   -1.2599    0.0000 C   0  0  0  0  0  0  0  0  0  0  0  0
    2.1843   -0.5099    0.0000 C   0  0  0  0  0  0  0  0  0  0  0  0
    2.1843    0.9901    0.0000 C   0  0  0  0  0  0  0  0  0  0  0  0
    3.6616    0.7298    0.0000 C   0  0  0  0  0  0  0  0  0  0  0  0
    2.6971    2.3997    0.0000 C   0  0  0  0  0  0  0  0  0  0  0  0
    0.8843    1.7401    0.0000 O   0  0  0  0  0  0  0  0  0  0  0  0
   -1.7157   -1.2599    0.0000 C   0  0  0  0  0  0  0  0  0  0  0  0
   -5.2786   -2.4094    0.0000 O   0  0  0  0  0  0  0  0  0  0  0  0
  1  2  1  0
  2  3  1  0
  3  4  2  0
  4  5  1  0
  5  6  2  0
  6  7  1  0
  7  8  1  0
  8  9  2  0
  9 10  1  0
 10 11  1  0
 10 12  1  0
 10 13  1  0
  6 13  1  0
  7 14  2  0
  3 14  1  0
  2 15  1  0
M  END
>  <cdk:Title>  (77) 
1-(2_2-Dimethylchromen-6-yl)ethanol

>  <1A2>  (77) 
N

>  <2A6>  (77) 
N

>  <2B6>  (77) 
N

>  <2C8>  (77) 
N

>  <2C9>  (77) 
N

>  <2C19>  (77) 
N

>  <2D6>  (77) 
N

>  <2E1>  (77) 
N

>  <3A4>  (77) 
N

>  <Citation>  (77) 
Nucleic Acids Res. 2018. Jan 4;46(D1):D608-17. PMID:29140435
Nucleic Acids Res. 2018 Jan 4;46(D1):D1074-D1082. PMID:29126136
Nucleic Acids Res., 45:D380-388 (2017).  PMID:27924025
Nucleic Acids Res. 2016 Jan 4;44(D1):D1202-13. PMID:26400175

>  <ROMol>  (77) 
<rdkit.Chem.rdchem.Mol object at 0x7c29060ed070>

>  <Drug_like>  (77) 
True

$$$$
Isomarasmone
     RDKit          2D

 20 23  0  0  0  0  0  0  0  0999 V2000
   -3.9115   -0.8021    0.0000 C   0  0  0  0  0  0  0  0  0  0  0  0
   -1.0162   -1.3127    0.0000 C   0  0  0  0  0  0  0  0  0  0  0  0
   -1.5292   -2.7222    0.0000 C   0  0  0  0  0  0  0  0  0  0  0  0
   -1.0162    0.1873    0.0000 C   0  0  0  0  0  0  0  0  0  0  0  0
   -2.3152    0.9373    0.0000 C   0  0  0  0  0  0  0  0  0  0  0  0
   -2.3152    2.4373    0.0000 C   0  0  0  0  0  0  0  0  0  0  0  0
   -0.5988    3.6508    0.0000 C   0  0  0  0  0  0  0  0  0  0  0  0
    0.2828    4.8644    0.0000 C   0  0  0  0  0  0  0  0  0  0  0  0
    1.7094    4.4008    0.0000 O   0  0  0  0  0  0  0  0  0  0  0  0
    1.7094    2.9008    0.0000 C   0  0  0  0  0  0  0  0  0  0  0  0
    0.2828    2.4373    0.0000 C   0  0  0  0  0  0  0  0  0  0  0  0
    0.2828    0.9373    0.0000 C   0  0  0  0  0  0  0  0  0  0  0  0
    1.5819    0.1873    0.0000 C   0  0  0  0  0  0  0  0  0  0  0  0
    1.5819   -1.3127    0.0000 C   0  0  0  0  0  0  0  0  0  0  0  0
    0.2828   -2.0627    0.0000 C   0  0  0  0  0  0  0  0  0  0  0  0
    0.2828   -4.0427    0.0000 O   0  0  0  0  0  0  0  0  0  0  0  0
    4.0045   -0.2399    0.0000 O   0  0  0  0  0  0  0  0  0  0  0  0
    1.7094    0.4738    0.0000 C   0  0  0  0  0  0  0  0  0  0  0  0
    2.4696   -1.8658    0.0000 O   0  0  0  0  0  0  0  0  0  0  0  0
    2.5911    1.6873    0.0000 O   0  0  0  0  0  0  0  0  0  0  0  0
  1  2  1  0
  2  3  1  0
  2  4  1  0
  4  5  1  0
  5  6  1  0
  6  7  2  0
  7  8  1  0
  8  9  1  0
  9 10  1  0
 10 11  1  0
  7 11  1  0
 11 12  1  0
  4 12  1  0
 12 13  1  6
 13 14  1  0
 14 15  1  0
  2 15  1  0
 15 16  2  0
 13 17  1  0
 12 18  1  0
 18 19  2  0
 18 20  1  0
 10 20  1  0
M  END
>  <cdk:Title>  (78) 
Isomarasmone

>  <1A2>  (78) 
N

>  <2A6>  (78) 
N

>  <2B6>  (78) 
N

>  <2C8>  (78) 
N

>  <2C9>  (78) 
N

>  <2C19>  (78) 
N

>  <2D6>  (78) 
N

>  <2E1>  (78) 
N

>  <3A4>  (78) 
N

>  <Citation>  (78) 
Nucleic Acids Res. 2018. Jan 4;46(D1):D608-17. PMID:29140435
Nucleic Acids Res. 2018 Jan 4;46(D1):D1074-D1082. PMID:29126136
Nucleic Acids Res., 45:D380-388 (2017).  PMID:27924025
Nucleic Acids Res. 2016 Jan 4;44(D1):D1202-13. PMID:26400175

>  <ROMol>  (78) 
<rdkit.Chem.rdchem.Mol object at 0x7c29060ed0e0>

>  <Drug_like>  (78) 
True

$$$$
H-TRP-Tyr-OH
     RDKit          2D

 27 29  0  0  0  0  0  0  0  0999 V2000
    5.3733    4.4038    0.0000 N   0  0  0  0  0  0  0  0  0  0  0  0
    3.9050    4.0969    0.0000 C   0  0  0  0  0  0  0  0  0  0  0  0
    2.9051    5.2150    0.0000 O   0  0  0  0  0  0  0  0  0  0  0  0
    3.4366    2.6719    0.0000 C   0  0  0  0  0  0  0  0  0  0  0  0
    3.4839    1.1726    0.0000 N   0  0  0  0  0  0  0  0  0  0  0  0
    1.9684    2.3650    0.0000 C   0  0  0  0  0  0  0  0  0  0  0  0
    1.3501    0.4840    0.0000 C   0  0  0  0  0  0  0  0  0  0  0  0
    2.2301   -0.7260    0.0000 C   0  0  0  0  0  0  0  0  0  0  0  0
    1.3501   -1.9360    0.0000 N   0  0  0  0  0  0  0  0  0  0  0  0
   -0.0799   -1.4660    0.0000 C   0  0  0  0  0  0  0  0  0  0  0  0
   -0.0699    0.0340    0.0000 C   0  0  0  0  0  0  0  0  0  0  0  0
   -1.3699    0.7840    0.0000 C   0  0  0  0  0  0  0  0  0  0  0  0
   -2.6699    0.0440    0.0000 C   0  0  0  0  0  0  0  0  0  0  0  0
   -2.6799   -1.4560    0.0000 C   0  0  0  0  0  0  0  0  0  0  0  0
   -1.3799   -2.2160    0.0000 C   0  0  0  0  0  0  0  0  0  0  0  0
    5.8416    5.8288    0.0000 C   0  0  0  0  0  0  0  0  0  0  0  0
    7.3099    6.1357    0.0000 C   0  0  0  0  0  0  0  0  0  0  0  0
    7.9282    8.0167    0.0000 C   0  0  0  0  0  0  0  0  0  0  0  0
    6.9228    9.1298    0.0000 C   0  0  0  0  0  0  0  0  0  0  0  0
    7.3626   10.5377    0.0000 C   0  0  0  0  0  0  0  0  0  0  0  0
    8.8671   10.8859    0.0000 C   0  0  0  0  0  0  0  0  0  0  0  0
    9.3167   12.3170    0.0000 O   0  0  0  0  0  0  0  0  0  0  0  0
    9.8725    9.7728    0.0000 C   0  0  0  0  0  0  0  0  0  0  0  0
    9.3734    8.3113    0.0000 C   0  0  0  0  0  0  0  0  0  0  0  0
    5.7944    7.3280    0.0000 C   0  0  0  0  0  0  0  0  0  0  0  0
    4.4724    8.0367    0.0000 O   0  0  0  0  0  0  0  0  0  0  0  0
    7.0692    8.1186    0.0000 O   0  0  0  0  0  0  0  0  0  0  0  0
  1  2  1  0
  2  3  2  0
  2  4  1  0
  4  5  1  0
  4  6  1  0
  6  7  1  0
  7  8  2  0
  8  9  1  0
  9 10  1  0
 10 11  2  0
  7 11  1  0
 11 12  1  0
 12 13  2  0
 13 14  1  0
 14 15  2  0
 10 15  1  0
  1 16  1  0
 16 17  1  0
 17 18  1  0
 18 19  2  0
 19 20  1  0
 20 21  2  0
 21 22  1  0
 21 23  1  0
 23 24  2  0
 18 24  1  0
 16 25  1  0
 25 26  1  0
 25 27  2  0
M  END
>  <cdk:Title>  (79) 
H-TRP-Tyr-OH

>  <1A2>  (79) 
N

>  <2A6>  (79) 
N

>  <2B6>  (79) 
N

>  <2C8>  (79) 
N

>  <2C9>  (79) 
N

>  <2C19>  (79) 
N

>  <2D6>  (79) 
N

>  <2E1>  (79) 
N

>  <3A4>  (79) 
N

>  <Citation>  (79) 
Nucleic Acids Res. 2018. Jan 4;46(D1):D608-17. PMID:29140435
Nucleic Acids Res. 2018 Jan 4;46(D1):D1074-D1082. PMID:29126136
Nucleic Acids Res., 45:D380-388 (2017).  PMID:27924025
Nucleic Acids Res. 2016 Jan 4;44(D1):D1202-13. PMID:26400175

>  <ROMol>  (79) 
<rdkit.Chem.rdchem.Mol object at 0x7c29060ed150>

>  <Drug_like>  (79) 
True

$$$$
6-Ethyl-1-methyl-2_7_8-trioxabicyclo[3.2.1]octane
     RDKit          2D

 11 12  0  0  0  0  0  0  0  0999 V2000
   -2.6636   -0.8160    0.0000 C   0  0  0  0  0  0  0  0  0  0  0  0
   -2.5867    0.6820    0.0000 C   0  0  0  0  0  0  0  0  0  0  0  0
   -1.2509    1.3644    0.0000 C   0  0  0  0  0  0  0  0  0  0  0  0
    1.0174    2.2433    0.0000 C   0  0  0  0  0  0  0  0  0  0  0  0
    2.3164    2.9933    0.0000 C   0  0  0  0  0  0  0  0  0  0  0  0
    2.3164    4.4933    0.0000 C   0  0  0  0  0  0  0  0  0  0  0  0
    1.0174    5.2433    0.0000 O   0  0  0  0  0  0  0  0  0  0  0  0
   -0.2816    4.4933    0.0000 C   0  0  0  0  0  0  0  0  0  0  0  0
   -1.5807    5.2433    0.0000 C   0  0  0  0  0  0  0  0  0  0  0  0
   -2.1769    2.9683    0.0000 O   0  0  0  0  0  0  0  0  0  0  0  0
   -0.2816    2.9933    0.0000 O   0  0  0  0  0  0  0  0  0  0  0  0
  1  2  1  0
  2  3  1  0
  3  4  1  0
  4  5  1  0
  5  6  1  0
  6  7  1  0
  7  8  1  0
  8  9  1  6
  8 10  1  0
  3 10  1  0
  8 11  1  0
  4 11  1  0
M  END
>  <cdk:Title>  (80) 
6-Ethyl-1-methyl-2_7_8-trioxabicyclo[3.2.1]octane

>  <1A2>  (80) 
N

>  <2A6>  (80) 
N

>  <2B6>  (80) 
N

>  <2C8>  (80) 
N

>  <2C9>  (80) 
N

>  <2C19>  (80) 
N

>  <2D6>  (80) 
N

>  <2E1>  (80) 
N

>  <3A4>  (80) 
N

>  <Citation>  (80) 
Nucleic Acids Res. 2018. Jan 4;46(D1):D608-17. PMID:29140435
Nucleic Acids Res. 2018 Jan 4;46(D1):D1074-D1082. PMID:29126136
Nucleic Acids Res., 45:D380-388 (2017).  PMID:27924025
Nucleic Acids Res. 2016 Jan 4;44(D1):D1202-13. PMID:26400175

>  <ROMol>  (80) 
<rdkit.Chem.rdchem.Mol object at 0x7c29060ed230>

>  <Drug_like>  (80) 
True

$$$$
Tigogenone
     RDKit          2D

 30 35  0  0  0  0  0  0  0  0999 V2000
    2.5856    2.8797    0.0000 C   0  0  0  0  0  0  0  0  0  0  0  0
    1.1156    0.3336    0.0000 C   0  0  0  0  0  0  0  0  0  0  0  0
    2.4147    1.0836    0.0000 C   0  0  0  0  0  0  0  0  0  0  0  0
    3.7137    0.3336    0.0000 C   0  0  0  0  0  0  0  0  0  0  0  0
    3.7137   -1.1664    0.0000 C   0  0  0  0  0  0  0  0  0  0  0  0
    2.4147   -1.9164    0.0000 C   0  0  0  0  0  0  0  0  0  0  0  0
    1.1156   -1.1664    0.0000 C   0  0  0  0  0  0  0  0  0  0  0  0
   -0.1834   -1.9164    0.0000 C   0  0  0  0  0  0  0  0  0  0  0  0
   -1.4825   -1.1664    0.0000 C   0  0  0  0  0  0  0  0  0  0  0  0
   -1.4825    0.3336    0.0000 C   0  0  0  0  0  0  0  0  0  0  0  0
   -0.1834    1.0836    0.0000 C   0  0  0  0  0  0  0  0  0  0  0  0
   -0.1834    2.5836    0.0000 C   0  0  0  0  0  0  0  0  0  0  0  0
   -1.4825    3.3336    0.0000 C   0  0  0  0  0  0  0  0  0  0  0  0
   -2.7815    2.5836    0.0000 C   0  0  0  0  0  0  0  0  0  0  0  0
   -1.5857    5.2694    0.0000 C   0  0  0  0  0  0  0  0  0  0  0  0
   -2.7815    1.0836    0.0000 C   0  0  0  0  0  0  0  0  0  0  0  0
   -4.2081    0.6201    0.0000 C   0  0  0  0  0  0  0  0  0  0  0  0
   -5.0898    1.8336    0.0000 C   0  0  0  0  0  0  0  0  0  0  0  0
   -6.5163    2.2971    0.0000 O   0  0  0  0  0  0  0  0  0  0  0  0
   -6.5163    3.7971    0.0000 C   0  0  0  0  0  0  0  0  0  0  0  0
   -7.8867    3.1870    0.0000 C   0  0  0  0  0  0  0  0  0  0  0  0
   -9.1002    4.0687    0.0000 C   0  0  0  0  0  0  0  0  0  0  0  0
   -8.9434    5.5605    0.0000 C   0  0  0  0  0  0  0  0  0  0  0  0
   -9.5385    7.9474    0.0000 C   0  0  0  0  0  0  0  0  0  0  0  0
   -7.5731    6.1706    0.0000 C   0  0  0  0  0  0  0  0  0  0  0  0
   -6.3595    5.2889    0.0000 O   0  0  0  0  0  0  0  0  0  0  0  0
   -5.0898    4.2606    0.0000 C   0  0  0  0  0  0  0  0  0  0  0  0
   -4.2081    3.0471    0.0000 C   0  0  0  0  0  0  0  0  0  0  0  0
   -3.7907    5.0106    0.0000 C   0  0  0  0  0  0  0  0  0  0  0  0
    5.0127   -1.9164    0.0000 O   0  0  0  0  0  0  0  0  0  0  0  0
  2  1  1  1
  2  3  1  0
  3  4  1  0
  4  5  1  0
  5  6  1  0
  6  7  1  0
  2  7  1  0
  7  8  1  0
  8  9  1  0
  9 10  1  0
 10 11  1  0
  2 11  1  0
 11 12  1  0
 12 13  1  0
 13 14  1  0
 14 15  1  1
 14 16  1  0
 10 16  1  0
 16 17  1  0
 17 18  1  0
 18 19  1  0
 20 19  1  0
 20 21  1  6
 21 22  1  0
 22 23  1  0
 23 24  1  0
 23 25  1  0
 25 26  1  0
 20 26  1  0
 20 27  1  0
 27 28  1  0
 14 28  1  0
 18 28  1  0
 27 29  1  0
  5 30  2  0
M  END
>  <cdk:Title>  (81) 
Tigogenone

>  <1A2>  (81) 
N

>  <2A6>  (81) 
N

>  <2B6>  (81) 
N

>  <2C8>  (81) 
N

>  <2C9>  (81) 
N

>  <2C19>  (81) 
N

>  <2D6>  (81) 
N

>  <2E1>  (81) 
N

>  <3A4>  (81) 
N

>  <Citation>  (81) 
Nucleic Acids Res. 2018. Jan 4;46(D1):D608-17. PMID:29140435
Nucleic Acids Res. 2018 Jan 4;46(D1):D1074-D1082. PMID:29126136
Nucleic Acids Res., 45:D380-388 (2017).  PMID:27924025
Nucleic Acids Res. 2016 Jan 4;44(D1):D1202-13. PMID:26400175

>  <ROMol>  (81) 
<rdkit.Chem.rdchem.Mol object at 0x7c29060ed380>

>  <Drug_like>  (81) 
True

$$$$
Didrovaltrate
     RDKit          2D

 30 32  0  0  0  0  0  0  0  0999 V2000
    7.3939    5.6511    0.0000 C   0  0  0  0  0  0  0  0  0  0  0  0
    5.9167    5.3907    0.0000 C   0  0  0  0  0  0  0  0  0  0  0  0
    5.9167    6.8907    0.0000 C   0  0  0  0  0  0  0  0  0  0  0  0
    4.2020    4.4007    0.0000 C   0  0  0  0  0  0  0  0  0  0  0  0
    4.2020    2.9007    0.0000 C   0  0  0  0  0  0  0  0  0  0  0  0
    5.5010    2.1507    0.0000 O   0  0  0  0  0  0  0  0  0  0  0  0
    2.9029    2.1507    0.0000 O   0  0  0  0  0  0  0  0  0  0  0  0
    2.9029    0.6507    0.0000 C   0  0  0  0  0  0  0  0  0  0  0  0
    1.6039   -0.0993    0.0000 C   0  0  0  0  0  0  0  0  0  0  0  0
    1.6039   -1.5993    0.0000 C   0  0  0  0  0  0  0  0  0  0  0  0
    0.3049   -2.3493    0.0000 O   0  0  0  0  0  0  0  0  0  0  0  0
   -0.9942   -1.5993    0.0000 C   0  0  0  0  0  0  0  0  0  0  0  0
   -0.9942   -0.0993    0.0000 C   0  0  0  0  0  0  0  0  0  0  0  0
    0.3049    0.6507    0.0000 C   0  0  0  0  0  0  0  0  0  0  0  0
   -0.0070    2.1179    0.0000 C   0  0  0  0  0  0  0  0  0  0  0  0
   -1.4988    2.2747    0.0000 C   0  0  0  0  0  0  0  0  0  0  0  0
   -2.1089    0.9044    0.0000 C   0  0  0  0  0  0  0  0  0  0  0  0
   -3.2236   -0.0993    0.0000 C   0  0  0  0  0  0  0  0  0  0  0  0
   -3.5355    1.3679    0.0000 O   0  0  0  0  0  0  0  0  0  0  0  0
   -1.1869    3.7419    0.0000 O   0  0  0  0  0  0  0  0  0  0  0  0
   -2.3016    4.7456    0.0000 C   0  0  0  0  0  0  0  0  0  0  0  0
   -1.9898    6.2128    0.0000 C   0  0  0  0  0  0  0  0  0  0  0  0
   -3.7282    4.2821    0.0000 O   0  0  0  0  0  0  0  0  0  0  0  0
   -3.8895   -1.0888    0.0000 O   0  0  0  0  0  0  0  0  0  0  0  0
   -4.8537   -2.2379    0.0000 C   0  0  0  0  0  0  0  0  0  0  0  0
   -6.3309   -1.9774    0.0000 C   0  0  0  0  0  0  0  0  0  0  0  0
   -7.6036   -3.4942    0.0000 C   0  0  0  0  0  0  0  0  0  0  0  0
   -9.0808   -3.2337    0.0000 C   0  0  0  0  0  0  0  0  0  0  0  0
   -8.1167   -4.9037    0.0000 C   0  0  0  0  0  0  0  0  0  0  0  0
   -4.3407   -3.6474    0.0000 O   0  0  0  0  0  0  0  0  0  0  0  0
  1  2  1  0
  2  3  1  0
  2  4  1  0
  4  5  1  0
  5  6  2  0
  5  7  1  0
  7  8  1  0
  8  9  1  0
  9 10  2  0
 10 11  1  0
 11 12  1  0
 12 13  1  0
 13 14  1  0
  9 14  1  0
 14 15  1  0
 15 16  1  0
 16 17  1  0
 13 17  1  0
 17 18  1  6
 18 19  1  0
 17 19  1  0
 16 20  1  0
 20 21  1  0
 21 22  1  0
 21 23  2  0
 12 24  1  0
 24 25  1  0
 25 26  1  0
 26 27  1  0
 27 28  1  0
 27 29  1  0
 25 30  2  0
M  END
>  <cdk:Title>  (82) 
Didrovaltrate

>  <1A2>  (82) 
N

>  <2A6>  (82) 
N

>  <2B6>  (82) 
N

>  <2C8>  (82) 
N

>  <2C9>  (82) 
N

>  <2C19>  (82) 
N

>  <2D6>  (82) 
N

>  <2E1>  (82) 
N

>  <3A4>  (82) 
N

>  <Citation>  (82) 
Nucleic Acids Res. 2018. Jan 4;46(D1):D608-17. PMID:29140435
Nucleic Acids Res. 2018 Jan 4;46(D1):D1074-D1082. PMID:29126136
Nucleic Acids Res., 45:D380-388 (2017).  PMID:27924025
Nucleic Acids Res. 2016 Jan 4;44(D1):D1202-13. PMID:26400175

>  <ROMol>  (82) 
<rdkit.Chem.rdchem.Mol object at 0x7c29060ed3f0>

>  <Drug_like>  (82) 
True

$$$$
AC1l1Eow
     RDKit          2D

 40 43  0  0  0  0  0  0  0  0999 V2000
    1.0149   -0.7007    0.0000 C   0  0  0  0  0  0  0  0  0  0  0  0
    3.0583   -2.8145    0.0000 C   0  0  0  0  0  0  0  0  0  0  0  0
    3.3682   -1.3414    0.0000 C   0  0  0  0  0  0  0  0  0  0  0  0
    4.8650   -1.1913    0.0000 C   0  0  0  0  0  0  0  0  0  0  0  0
    5.4711   -2.5592    0.0000 C   0  0  0  0  0  0  0  0  0  0  0  0
    4.3564   -3.5662    0.0000 C   0  0  0  0  0  0  0  0  0  0  0  0
    6.4712   -5.6085    0.0000 C   0  0  0  0  0  0  0  0  0  0  0  0
    4.3539   -5.0670    0.0000 C   0  0  0  0  0  0  0  0  0  0  0  0
    3.0534   -5.8161    0.0000 C   0  0  0  0  0  0  0  0  0  0  0  0
    3.0517   -7.3161    0.0000 O   0  0  0  0  0  0  0  0  0  0  0  0
    1.7553   -5.0644    0.0000 C   0  0  0  0  0  0  0  0  0  0  0  0
    1.7519   -8.0044    0.0000 C   0  0  0  0  0  0  0  0  0  0  0  0
    1.7578   -3.5636    0.0000 C   0  0  0  0  0  0  0  0  0  0  0  0
    0.4598   -2.8119    0.0000 C   0  0  0  0  0  0  0  0  0  0  0  0
   -0.8407   -3.5610    0.0000 C   0  0  0  0  0  0  0  0  0  0  0  0
   -0.8432   -5.0618    0.0000 C   0  0  0  0  0  0  0  0  0  0  0  0
    0.4548   -5.8135    0.0000 C   0  0  0  0  0  0  0  0  0  0  0  0
    0.4574   -7.3057    0.0000 C   0  0  0  0  0  0  0  0  0  0  0  0
   -0.8431   -8.0548    0.0000 C   0  0  0  0  0  0  0  0  0  0  0  0
    1.0442  -10.3091    0.0000 O   0  0  0  0  0  0  0  0  0  0  0  0
   -2.1412   -7.3031    0.0000 C   0  0  0  0  0  0  0  0  0  0  0  0
   -2.1387   -5.8023    0.0000 C   0  0  0  0  0  0  0  0  0  0  0  0
   -4.5624   -6.2233    0.0000 C   0  0  0  0  0  0  0  0  0  0  0  0
   -3.1347   -3.0361    0.0000 C   0  0  0  0  0  0  0  0  0  0  0  0
   -3.4413   -8.0512    0.0000 O   0  0  0  0  0  0  0  0  0  0  0  0
    8.0182   -1.0909    0.0000 C   0  0  0  0  0  0  0  0  0  0  0  0
    8.5303   -2.5008    0.0000 C   0  0  0  0  0  0  0  0  0  0  0  0
    8.0198    1.3691    0.0000 C   0  0  0  0  0  0  0  0  0  0  0  0
    9.3193    2.1182    0.0000 C   0  0  0  0  0  0  0  0  0  0  0  0
    9.3203    3.6182    0.0000 C   0  0  0  0  0  0  0  0  0  0  0  0
   11.4515    4.8468    0.0000 C   0  0  0  0  0  0  0  0  0  0  0  0
    9.8715    6.7323    0.0000 C   0  0  0  0  0  0  0  0  0  0  0  0
   12.4165    5.9953    0.0000 C   0  0  0  0  0  0  0  0  0  0  0  0
   13.5811    3.6154    0.0000 O   0  0  0  0  0  0  0  0  0  0  0  0
   14.8807    4.3646    0.0000 C   0  0  0  0  0  0  0  0  0  0  0  0
   16.1792    3.6137    0.0000 C   0  0  0  0  0  0  0  0  0  0  0  0
   14.8817    5.8646    0.0000 O   0  0  0  0  0  0  0  0  0  0  0  0
    6.7212    2.1200    0.0000 O   0  0  0  0  0  0  0  0  0  0  0  0
    9.4955   -0.8314    0.0000 O   0  0  0  0  0  0  0  0  0  0  0  0
    4.5586    0.2771    0.0000 O   0  0  0  0  0  0  0  0  0  0  0  0
  2  1  1  6
  2  3  1  0
  3  4  1  0
  4  5  1  0
  5  6  1  0
  2  6  1  0
  6  7  1  6
  6  8  1  0
  8  9  1  0
  9 10  2  0
  9 11  1  0
 11 12  1  6
 11 13  1  0
  2 13  1  0
 13 14  1  0
 14 15  1  0
 15 16  2  0
 16 17  1  0
 11 17  1  0
 17 18  1  0
 18 19  1  0
 19 20  1  0
 19 21  1  0
 21 22  1  0
 16 22  1  0
 22 23  1  0
 22 24  1  0
 21 25  2  0
  5 26  1  0
 26 27  1  1
 26 28  1  0
 28 29  1  0
 29 30  2  0
 30 31  1  0
 31 32  1  0
 31 33  1  0
 31 34  1  0
 34 35  1  0
 35 36  1  0
 35 37  2  0
 28 38  2  0
 26 39  1  0
  4 40  1  0
M  END
>  <cdk:Title>  (83) 
AC1l1Eow

>  <1A2>  (83) 
N

>  <2A6>  (83) 
N

>  <2B6>  (83) 
N

>  <2C8>  (83) 
N

>  <2C9>  (83) 
N

>  <2C19>  (83) 
N

>  <2D6>  (83) 
N

>  <2E1>  (83) 
N

>  <3A4>  (83) 
N

>  <Citation>  (83) 
Nucleic Acids Res. 2018. Jan 4;46(D1):D608-17. PMID:29140435
Nucleic Acids Res. 2018 Jan 4;46(D1):D1074-D1082. PMID:29126136
Nucleic Acids Res., 45:D380-388 (2017).  PMID:27924025
Nucleic Acids Res. 2016 Jan 4;44(D1):D1202-13. PMID:26400175

>  <ROMol>  (83) 
<rdkit.Chem.rdchem.Mol object at 0x7c29060ed5b0>

>  <Drug_like>  (83) 
True

$$$$
Upunaphenol e
     RDKit          2D

 43 49  0  0  0  0  0  0  0  0999 V2000
    5.1057   -0.7695    0.0000 C   0  0  0  0  0  0  0  0  0  0  0  0
    5.1043    0.7313    0.0000 C   0  0  0  0  0  0  0  0  0  0  0  0
    3.8042    1.4813    0.0000 C   0  0  0  0  0  0  0  0  0  0  0  0
    2.5057    0.7304    0.0000 C   0  0  0  0  0  0  0  0  0  0  0  0
    2.5072   -0.7704    0.0000 C   0  0  0  0  0  0  0  0  0  0  0  0
    3.8072   -1.5204    0.0000 C   0  0  0  0  0  0  0  0  0  0  0  0
    3.8079   -3.0204    0.0000 C   0  0  0  0  0  0  0  0  0  0  0  0
    5.1074   -3.7698    0.0000 O   0  0  0  0  0  0  0  0  0  0  0  0
    1.3917    1.7381    0.0000 C   0  0  0  0  0  0  0  0  0  0  0  0
   -1.1544    3.2081    0.0000 C   0  0  0  0  0  0  0  0  0  0  0  0
   -1.1540    4.7089    0.0000 C   0  0  0  0  0  0  0  0  0  0  0  0
   -2.4530    5.4589    0.0000 C   0  0  0  0  0  0  0  0  0  0  0  0
   -3.7525    4.7081    0.0000 C   0  0  0  0  0  0  0  0  0  0  0  0
   -3.7530    3.2073    0.0000 C   0  0  0  0  0  0  0  0  0  0  0  0
   -2.4540    2.4573    0.0000 C   0  0  0  0  0  0  0  0  0  0  0  0
   -2.7706    0.9888    0.0000 C   0  0  0  0  0  0  0  0  0  0  0  0
   -2.7719   -0.9912    0.0000 C   0  0  0  0  0  0  0  0  0  0  0  0
   -1.4728   -1.7426    0.0000 C   0  0  0  0  0  0  0  0  0  0  0  0
   -1.4730   -3.2435    0.0000 C   0  0  0  0  0  0  0  0  0  0  0  0
   -2.7724   -3.9928    0.0000 C   0  0  0  0  0  0  0  0  0  0  0  0
   -4.0716   -3.2413    0.0000 C   0  0  0  0  0  0  0  0  0  0  0  0
   -4.0713   -1.7405    0.0000 C   0  0  0  0  0  0  0  0  0  0  0  0
   -5.3710   -3.9907    0.0000 O   0  0  0  0  0  0  0  0  0  0  0  0
   -0.1742   -3.9939    0.0000 O   0  0  0  0  0  0  0  0  0  0  0  0
   -4.2585    0.8317    0.0000 C   0  0  0  0  0  0  0  0  0  0  0  0
   -6.1417    0.2202    0.0000 C   0  0  0  0  0  0  0  0  0  0  0  0
   -6.4465   -1.2485    0.0000 C   0  0  0  0  0  0  0  0  0  0  0  0
   -7.8425   -1.7247    0.0000 C   0  0  0  0  0  0  0  0  0  0  0  0
   -9.0119   -0.7160    0.0000 C   0  0  0  0  0  0  0  0  0  0  0  0
   -8.7070    0.7527    0.0000 C   0  0  0  0  0  0  0  0  0  0  0  0
   -7.2327    1.2127    0.0000 C   0  0  0  0  0  0  0  0  0  0  0  0
  -10.4323   -1.1980    0.0000 O   0  0  0  0  0  0  0  0  0  0  0  0
   -4.8664    2.1988    0.0000 O   0  0  0  0  0  0  0  0  0  0  0  0
   -2.4532    6.9589    0.0000 O   0  0  0  0  0  0  0  0  0  0  0  0
    1.9987    3.1056    0.0000 C   0  0  0  0  0  0  0  0  0  0  0  0
    2.6085    5.9816    0.0000 C   0  0  0  0  0  0  0  0  0  0  0  0
    1.4883    6.9793    0.0000 C   0  0  0  0  0  0  0  0  0  0  0  0
    1.7729    8.4265    0.0000 C   0  0  0  0  0  0  0  0  0  0  0  0
    3.2309    8.9358    0.0000 C   0  0  0  0  0  0  0  0  0  0  0  0
    4.3510    7.9382    0.0000 C   0  0  0  0  0  0  0  0  0  0  0  0
    4.0132    6.4312    0.0000 C   0  0  0  0  0  0  0  0  0  0  0  0
    3.5227   10.4071    0.0000 O   0  0  0  0  0  0  0  0  0  0  0  0
    3.4867    2.9495    0.0000 O   0  0  0  0  0  0  0  0  0  0  0  0
  1  2  2  0
  2  3  1  0
  3  4  2  0
  4  5  1  0
  5  6  2  0
  1  6  1  0
  6  7  1  0
  7  8  2  0
  4  9  1  0
  9 10  1  0
 10 11  2  0
 11 12  1  0
 12 13  2  0
 13 14  1  0
 14 15  2  0
 10 15  1  0
 15 16  1  0
 16 17  1  0
 17 18  2  0
 18 19  1  0
 19 20  2  0
 20 21  1  0
 21 22  2  0
 17 22  1  0
 21 23  1  0
 19 24  1  0
 16 25  1  0
 25 26  1  0
 26 27  2  0
 27 28  1  0
 28 29  2  0
 29 30  1  0
 30 31  2  0
 26 31  1  0
 29 32  1  0
 25 33  1  0
 14 33  1  0
 12 34  1  0
  9 35  1  0
 35 36  1  0
 36 37  2  0
 37 38  1  0
 38 39  2  0
 39 40  1  0
 40 41  2  0
 36 41  1  0
 39 42  1  0
 35 43  1  0
  3 43  1  0
M  END
>  <cdk:Title>  (84) 
Upunaphenol e

>  <1A2>  (84) 
N

>  <2A6>  (84) 
N

>  <2B6>  (84) 
N

>  <2C8>  (84) 
N

>  <2C9>  (84) 
N

>  <2C19>  (84) 
N

>  <2D6>  (84) 
N

>  <2E1>  (84) 
N

>  <3A4>  (84) 
N

>  <Citation>  (84) 
Nucleic Acids Res. 2018. Jan 4;46(D1):D608-17. PMID:29140435
Nucleic Acids Res. 2018 Jan 4;46(D1):D1074-D1082. PMID:29126136
Nucleic Acids Res., 45:D380-388 (2017).  PMID:27924025
Nucleic Acids Res. 2016 Jan 4;44(D1):D1202-13. PMID:26400175

>  <ROMol>  (84) 
<rdkit.Chem.rdchem.Mol object at 0x7c29060ed620>

>  <Drug_like>  (84) 
True

$$$$
1-Methyl-1-[[(2S)-5-vinyl-5beta-(hydroxymethyl)tetrahydrofuran]-2alpha-yl]ethyl 
     RDKit          2D

 24 25  0  0  0  0  0  0  0  0999 V2000
    3.6832    1.8882    0.0000 C   0  0  0  0  0  0  0  0  0  0  0  0
    5.0799    2.4466    0.0000 O   0  0  0  0  0  0  0  0  0  0  0  0
    6.0409    1.2998    0.0000 C   0  0  0  0  0  0  0  0  0  0  0  0
    5.2507    0.0334    0.0000 C   0  0  0  0  0  0  0  0  0  0  0  0
    3.7954    0.3966    0.0000 C   0  0  0  0  0  0  0  0  0  0  0  0
    7.0831    2.3786    0.0000 C   0  0  0  0  0  0  0  0  0  0  0  0
    8.5385    2.0154    0.0000 O   0  0  0  0  0  0  0  0  0  0  0  0
    7.6014    0.0811    0.0000 C   0  0  0  0  0  0  0  0  0  0  0  0
    7.3930   -1.4043    0.0000 C   0  0  0  0  0  0  0  0  0  0  0  0
    0.7890    1.3710    0.0000 C   0  0  0  0  0  0  0  0  0  0  0  0
    1.3062   -1.5232    0.0000 C   0  0  0  0  0  0  0  0  0  0  0  0
    0.7856    2.8710    0.0000 C   0  0  0  0  0  0  0  0  0  0  0  0
   -1.6346    1.7926    0.0000 O   0  0  0  0  0  0  0  0  0  0  0  0
   -2.1509    3.2009    0.0000 C   0  0  0  0  0  0  0  0  0  0  0  0
   -2.1613    4.7191    0.0000 O   0  0  0  0  0  0  0  0  0  0  0  0
   -3.4609    5.4699    0.0000 C   0  0  0  0  0  0  0  0  0  0  0  0
   -4.7512    4.7249    0.0000 C   0  0  0  0  0  0  0  0  0  0  0  0
   -4.7594    3.2191    0.0000 C   0  0  0  0  0  0  0  0  0  0  0  0
   -3.4412    2.4559    0.0000 C   0  0  0  0  0  0  0  0  0  0  0  0
   -4.4063    1.3076    0.0000 O   0  0  0  0  0  0  0  0  0  0  0  0
   -6.2356    3.4855    0.0000 O   0  0  0  0  0  0  0  0  0  0  0  0
   -5.2617    6.1354    0.0000 O   0  0  0  0  0  0  0  0  0  0  0  0
   -2.4964    6.6188    0.0000 C   0  0  0  0  0  0  0  0  0  0  0  0
   -3.0092    8.0284    0.0000 O   0  0  0  0  0  0  0  0  0  0  0  0
  1  2  1  0
  2  3  1  0
  3  4  1  0
  4  5  1  0
  1  5  1  0
  3  6  1  1
  6  7  1  0
  3  8  1  0
  8  9  2  0
  1 10  1  0
 10 11  1  0
 10 12  1  0
 10 13  1  0
 13 14  1  0
 14 15  1  0
 15 16  1  0
 16 17  1  0
 17 18  1  0
 18 19  1  0
 14 19  1  0
 19 20  1  0
 18 21  1  0
 17 22  1  0
 16 23  1  0
 23 24  1  0
M  END
>  <cdk:Title>  (85) 
1-Methyl-1-[[(2S)-5-vinyl-5beta-(hydroxymethyl)tetrahydrofuran]-2alpha-yl]ethyl beta-D-glucopyranoside

>  <1A2>  (85) 
N

>  <2A6>  (85) 
N

>  <2B6>  (85) 
N

>  <2C8>  (85) 
N

>  <2C9>  (85) 
N

>  <2C19>  (85) 
N

>  <2D6>  (85) 
N

>  <2E1>  (85) 
N

>  <3A4>  (85) 
N

>  <Citation>  (85) 
Nucleic Acids Res. 2018. Jan 4;46(D1):D608-17. PMID:29140435
Nucleic Acids Res. 2018 Jan 4;46(D1):D1074-D1082. PMID:29126136
Nucleic Acids Res., 45:D380-388 (2017).  PMID:27924025
Nucleic Acids Res. 2016 Jan 4;44(D1):D1202-13. PMID:26400175

>  <ROMol>  (85) 
<rdkit.Chem.rdchem.Mol object at 0x7c29060ed700>

>  <Drug_like>  (85) 
True

$$$$
(4S_4AS_5R_6S_8ar_9ar)-9a-methoxy-3_4a_5-trimethyl-6-{[(2Z)-3-(methylsulfanyl)pr
     RDKit          2D

 33 35  0  0  0  0  0  0  0  0999 V2000
   -4.3084   -8.4718    0.0000 C   0  0  0  0  0  0  0  0  0  0  0  0
   -3.0049   -7.7296    0.0000 C   0  0  0  0  0  0  0  0  0  0  0  0
   -2.9959   -6.2297    0.0000 C   0  0  0  0  0  0  0  0  0  0  0  0
   -1.6924   -5.4875    0.0000 C   0  0  0  0  0  0  0  0  0  0  0  0
   -4.2904   -5.4719    0.0000 C   0  0  0  0  0  0  0  0  0  0  0  0
   -5.5939   -6.2141    0.0000 O   0  0  0  0  0  0  0  0  0  0  0  0
   -4.2814   -3.9719    0.0000 O   0  0  0  0  0  0  0  0  0  0  0  0
   -6.8187   -2.4867    0.0000 C   0  0  0  0  0  0  0  0  0  0  0  0
   -8.2870   -2.7455    0.0000 C   0  0  0  0  0  0  0  0  0  0  0  0
   -9.0893   -4.0228    0.0000 C   0  0  0  0  0  0  0  0  0  0  0  0
   -8.5323   -5.4156    0.0000 C   0  0  0  0  0  0  0  0  0  0  0  0
  -10.5585   -3.6491    0.0000 C   0  0  0  0  0  0  0  0  0  0  0  0
  -11.7140   -4.6056    0.0000 O   0  0  0  0  0  0  0  0  0  0  0  0
  -10.6506   -2.1477    0.0000 O   0  0  0  0  0  0  0  0  0  0  0  0
   -9.2514   -1.5835    0.0000 C   0  0  0  0  0  0  0  0  0  0  0  0
   -8.7207   -0.1796    0.0000 C   0  0  0  0  0  0  0  0  0  0  0  0
   -7.2538    0.0651    0.0000 C   0  0  0  0  0  0  0  0  0  0  0  0
   -6.7232    1.4690    0.0000 C   0  0  0  0  0  0  0  0  0  0  0  0
   -5.2422    1.7123    0.0000 C   0  0  0  0  0  0  0  0  0  0  0  0
   -4.2919    0.5518    0.0000 C   0  0  0  0  0  0  0  0  0  0  0  0
   -4.8225   -0.8521    0.0000 C   0  0  0  0  0  0  0  0  0  0  0  0
   -2.4058   -1.3113    0.0000 C   0  0  0  0  0  0  0  0  0  0  0  0
   -6.2958   -1.0891    0.0000 C   0  0  0  0  0  0  0  0  0  0  0  0
   -4.7372   -2.9924    0.0000 C   0  0  0  0  0  0  0  0  0  0  0  0
   -3.3139    1.6891    0.0000 O   0  0  0  0  0  0  0  0  0  0  0  0
   -1.8399    1.4108    0.0000 C   0  0  0  0  0  0  0  0  0  0  0  0
   -0.8619    2.5481    0.0000 C   0  0  0  0  0  0  0  0  0  0  0  0
    0.6121    2.2697    0.0000 C   0  0  0  0  0  0  0  0  0  0  0  0
    1.5901    3.4070    0.0000 S   0  0  0  0  0  0  0  0  0  0  0  0
    3.0640    3.1287    0.0000 C   0  0  0  0  0  0  0  0  0  0  0  0
   -1.3440   -0.0049    0.0000 O   0  0  0  0  0  0  0  0  0  0  0  0
  -11.0098    0.1368    0.0000 O   0  0  0  0  0  0  0  0  0  0  0  0
  -12.4543   -0.2672    0.0000 C   0  0  0  0  0  0  0  0  0  0  0  0
  1  2  1  0
  2  3  2  0
  3  4  1  0
  3  5  1  0
  5  6  2  0
  5  7  1  0
  7  8  1  0
  8  9  1  0
  9 10  2  0
 10 11  1  0
 10 12  1  0
 12 13  2  0
 12 14  1  0
 14 15  1  0
  9 15  1  0
 15 16  1  0
 16 17  1  0
 17 18  1  0
 18 19  1  0
 19 20  1  0
 20 21  1  0
 21 22  1  0
 21 23  1  0
 17 23  1  0
  8 23  1  0
 23 24  1  6
 20 25  1  0
 25 26  1  0
 26 27  1  0
 27 28  2  0
 28 29  1  0
 29 30  1  0
 26 31  2  0
 15 32  1  1
 32 33  1  0
M  END
>  <cdk:Title>  (86) 
(4S_4AS_5R_6S_8ar_9ar)-9a-methoxy-3_4a_5-trimethyl-6-{[(2Z)-3-(methylsulfanyl)prop-2-enoyl]oxy}-2-oxo-2H_4H_4ah_5H_6H_7H_8H_8ah_9H_9ah-naphtho[2_3-b]furan-4-yl (2Z)-2-methylbut-2-enoate

>  <1A2>  (86) 
N

>  <2A6>  (86) 
N

>  <2B6>  (86) 
N

>  <2C8>  (86) 
N

>  <2C9>  (86) 
N

>  <2C19>  (86) 
N

>  <2D6>  (86) 
N

>  <2E1>  (86) 
N

>  <3A4>  (86) 
N

>  <Citation>  (86) 
Nucleic Acids Res. 2018. Jan 4;46(D1):D608-17. PMID:29140435
Nucleic Acids Res. 2018 Jan 4;46(D1):D1074-D1082. PMID:29126136
Nucleic Acids Res., 45:D380-388 (2017).  PMID:27924025
Nucleic Acids Res. 2016 Jan 4;44(D1):D1202-13. PMID:26400175

>  <ROMol>  (86) 
<rdkit.Chem.rdchem.Mol object at 0x7c29060ed8c0>

>  <Drug_like>  (86) 
True

$$$$
(1R_6alpha)-1alpha-Methyl-3alpha-acetoxy-4beta-[1-methylene-2-(angeloyloxy)-5-me
     RDKit          2D

 29 30  0  0  0  0  0  0  0  0999 V2000
   -5.0584    1.4010    0.0000 C   0  0  0  0  0  0  0  0  0  0  0  0
   -4.5450    2.8112    0.0000 C   0  0  0  0  0  0  0  0  0  0  0  0
   -5.5088    3.9617    0.0000 C   0  0  0  0  0  0  0  0  0  0  0  0
   -6.9861    3.7018    0.0000 C   0  0  0  0  0  0  0  0  0  0  0  0
   -7.4996    2.2916    0.0000 C   0  0  0  0  0  0  0  0  0  0  0  0
   -6.5357    1.1411    0.0000 C   0  0  0  0  0  0  0  0  0  0  0  0
   -6.0235   -0.2687    0.0000 O   0  0  0  0  0  0  0  0  0  0  0  0
   -6.9883   -1.4172    0.0000 C   0  0  0  0  0  0  0  0  0  0  0  0
   -8.4653   -1.1560    0.0000 C   0  0  0  0  0  0  0  0  0  0  0  0
   -6.4760   -2.8270    0.0000 O   0  0  0  0  0  0  0  0  0  0  0  0
   -8.9769    2.0317    0.0000 O   0  0  0  0  0  0  0  0  0  0  0  0
   -6.4727    5.1121    0.0000 O   0  0  0  0  0  0  0  0  0  0  0  0
   -8.3956    4.2150    0.0000 C   0  0  0  0  0  0  0  0  0  0  0  0
   -3.5802    3.9598    0.0000 O   0  0  0  0  0  0  0  0  0  0  0  0
   -3.1086    1.0567    0.0000 C   0  0  0  0  0  0  0  0  0  0  0  0
   -2.2677   -1.2551    0.0000 C   0  0  0  0  0  0  0  0  0  0  0  0
   -3.2321   -2.4039    0.0000 O   0  0  0  0  0  0  0  0  0  0  0  0
   -2.7194   -3.8136    0.0000 C   0  0  0  0  0  0  0  0  0  0  0  0
   -3.6838   -4.9625    0.0000 C   0  0  0  0  0  0  0  0  0  0  0  0
   -3.1711   -6.3721    0.0000 C   0  0  0  0  0  0  0  0  0  0  0  0
   -1.6939   -6.6329    0.0000 C   0  0  0  0  0  0  0  0  0  0  0  0
   -5.1610   -4.7017    0.0000 C   0  0  0  0  0  0  0  0  0  0  0  0
   -1.2422   -4.0744    0.0000 O   0  0  0  0  0  0  0  0  0  0  0  0
   -0.9685   -0.5054    0.0000 C   0  0  0  0  0  0  0  0  0  0  0  0
    0.3304   -1.2556    0.0000 C   0  0  0  0  0  0  0  0  0  0  0  0
    1.6296   -0.5059    0.0000 C   0  0  0  0  0  0  0  0  0  0  0  0
    2.9284   -1.2562    0.0000 C   0  0  0  0  0  0  0  0  0  0  0  0
    1.6299    0.9941    0.0000 C   0  0  0  0  0  0  0  0  0  0  0  0
   -1.2183    3.3085    0.0000 C   0  0  0  0  0  0  0  0  0  0  0  0
  1  2  1  0
  2  3  1  0
  3  4  1  0
  4  5  1  0
  5  6  1  0
  1  6  1  0
  6  7  1  0
  7  8  1  0
  8  9  1  0
  8 10  2  0
  5 11  2  0
  4 12  1  0
  3 12  1  0
  4 13  1  1
  2 14  1  0
  1 15  1  0
 15 16  1  0
 16 17  1  0
 17 18  1  0
 18 19  1  0
 19 20  2  0
 20 21  1  0
 19 22  1  0
 18 23  2  0
 16 24  1  0
 24 25  1  0
 25 26  2  0
 26 27  1  0
 26 28  1  0
 15 29  2  0
M  END
>  <cdk:Title>  (87) 
(1R_6alpha)-1alpha-Methyl-3alpha-acetoxy-4beta-[1-methylene-2-(angeloyloxy)-5-methyl-4-hexenyl]-5alpha-hydroxy-7-oxabicyclo[4.1.0]heptane-2-one

>  <1A2>  (87) 
N

>  <2A6>  (87) 
N

>  <2B6>  (87) 
N

>  <2C8>  (87) 
N

>  <2C9>  (87) 
N

>  <2C19>  (87) 
N

>  <2D6>  (87) 
N

>  <2E1>  (87) 
N

>  <3A4>  (87) 
N

>  <Citation>  (87) 
Nucleic Acids Res. 2018. Jan 4;46(D1):D608-17. PMID:29140435
Nucleic Acids Res. 2018 Jan 4;46(D1):D1074-D1082. PMID:29126136
Nucleic Acids Res., 45:D380-388 (2017).  PMID:27924025
Nucleic Acids Res. 2016 Jan 4;44(D1):D1202-13. PMID:26400175

>  <ROMol>  (87) 
<rdkit.Chem.rdchem.Mol object at 0x7c29060ed9a0>

>  <Drug_like>  (87) 
True

$$$$
O-Stearoylcarnitine
     RDKit          2D

 30 29  0  0  0  0  0  0  0  0999 V2000
   36.7862   12.6390    0.0000 N   0  0  0  0  0  0  0  0  0  0  0  0
   36.7862   11.1390    0.0000 C   0  0  0  0  0  0  0  0  0  0  0  0
   34.2400    9.6690    0.0000 C   0  0  0  0  0  0  0  0  0  0  0  0
   35.8213    7.7845    0.0000 C   0  0  0  0  0  0  0  0  0  0  0  0
   35.3083    6.3750    0.0000 C   0  0  0  0  0  0  0  0  0  0  0  0
   36.2725    5.2259    0.0000 O   0  0  0  0  0  0  0  0  0  0  0  0
   33.8311    6.1145    0.0000 O   0  0  0  0  0  0  0  0  0  0  0  0
   32.9410   10.4190    0.0000 O   0  0  0  0  0  0  0  0  0  0  0  0
   31.6420    9.6690    0.0000 C   0  0  0  0  0  0  0  0  0  0  0  0
   31.6420    8.1690    0.0000 O   0  0  0  0  0  0  0  0  0  0  0  0
   30.3429   10.4190    0.0000 C   0  0  0  0  0  0  0  0  0  0  0  0
   28.2125    9.1890    0.0000 C   0  0  0  0  0  0  0  0  0  0  0  0
   26.4978   10.1790    0.0000 C   0  0  0  0  0  0  0  0  0  0  0  0
   24.7831    9.1890    0.0000 C   0  0  0  0  0  0  0  0  0  0  0  0
   23.0683   10.1790    0.0000 C   0  0  0  0  0  0  0  0  0  0  0  0
   21.3536    9.1890    0.0000 C   0  0  0  0  0  0  0  0  0  0  0  0
   19.6389   10.1790    0.0000 C   0  0  0  0  0  0  0  0  0  0  0  0
   17.9241    9.1890    0.0000 C   0  0  0  0  0  0  0  0  0  0  0  0
   16.2094   10.1790    0.0000 C   0  0  0  0  0  0  0  0  0  0  0  0
   14.4947    9.1890    0.0000 C   0  0  0  0  0  0  0  0  0  0  0  0
   12.7799   10.1790    0.0000 C   0  0  0  0  0  0  0  0  0  0  0  0
   11.0652    9.1890    0.0000 C   0  0  0  0  0  0  0  0  0  0  0  0
    9.3505   10.1790    0.0000 C   0  0  0  0  0  0  0  0  0  0  0  0
    7.6357    9.1890    0.0000 C   0  0  0  0  0  0  0  0  0  0  0  0
    5.9210   10.1790    0.0000 C   0  0  0  0  0  0  0  0  0  0  0  0
    4.6220    9.4290    0.0000 C   0  0  0  0  0  0  0  0  0  0  0  0
    3.3229   10.1790    0.0000 C   0  0  0  0  0  0  0  0  0  0  0  0
   35.4871   13.3890    0.0000 C   0  0  0  0  0  0  0  0  0  0  0  0
   37.6275   14.9506    0.0000 C   0  0  0  0  0  0  0  0  0  0  0  0
   39.6815   12.1285    0.0000 C   0  0  0  0  0  0  0  0  0  0  0  0
  1  2  1  0
  2  3  1  0
  3  4  1  0
  4  5  1  0
  5  6  1  0
  5  7  2  0
  3  8  1  0
  8  9  1  0
  9 10  2  0
  9 11  1  0
 11 12  1  0
 12 13  1  0
 13 14  1  0
 14 15  1  0
 15 16  1  0
 16 17  1  0
 17 18  1  0
 18 19  1  0
 19 20  1  0
 20 21  1  0
 21 22  1  0
 22 23  1  0
 23 24  1  0
 24 25  1  0
 25 26  1  0
 26 27  1  0
  1 28  1  0
  1 29  1  0
  1 30  1  0
M  CHG  2   1   1   6  -1
M  END
>  <cdk:Title>  (88) 
O-Stearoylcarnitine

>  <1A2>  (88) 
N

>  <2A6>  (88) 
N

>  <2B6>  (88) 
N

>  <2C8>  (88) 
N

>  <2C9>  (88) 
N

>  <2C19>  (88) 
N

>  <2D6>  (88) 
N

>  <2E1>  (88) 
N

>  <3A4>  (88) 
N

>  <Citation>  (88) 
Nucleic Acids Res. 2018. Jan 4;46(D1):D608-17. PMID:29140435
Nucleic Acids Res. 2018 Jan 4;46(D1):D1074-D1082. PMID:29126136
Nucleic Acids Res., 45:D380-388 (2017).  PMID:27924025
Nucleic Acids Res. 2016 Jan 4;44(D1):D1202-13. PMID:26400175

>  <ROMol>  (88) 
<rdkit.Chem.rdchem.Mol object at 0x7c29060eda80>

>  <Drug_like>  (88) 
True

$$$$
Cinncassiol C2
     RDKit          2D

 26 29  0  0  0  0  0  0  0  0999 V2000
    1.3798    6.5912    0.0000 C   0  0  0  0  0  0  0  0  0  0  0  0
    1.1024    5.1171    0.0000 C   0  0  0  0  0  0  0  0  0  0  0  0
    2.6023    5.0999    0.0000 C   0  0  0  0  0  0  0  0  0  0  0  0
    0.3375    3.8268    0.0000 C   0  0  0  0  0  0  0  0  0  0  0  0
    1.1846    2.3596    0.0000 C   0  0  0  0  0  0  0  0  0  0  0  0
    0.3714    0.8734    0.0000 C   0  0  0  0  0  0  0  0  0  0  0  0
   -1.6078    0.2255    0.0000 C   0  0  0  0  0  0  0  0  0  0  0  0
   -0.4091   -2.4590    0.0000 C   0  0  0  0  0  0  0  0  0  0  0  0
   -1.6078    1.7255    0.0000 C   0  0  0  0  0  0  0  0  0  0  0  0
   -2.9069    2.4755    0.0000 C   0  0  0  0  0  0  0  0  0  0  0  0
   -1.3561    3.8656    0.0000 C   0  0  0  0  0  0  0  0  0  0  0  0
   -1.8760    5.2726    0.0000 C   0  0  0  0  0  0  0  0  0  0  0  0
   -6.1012    1.7504    0.0000 C   0  0  0  0  0  0  0  0  0  0  0  0
   -4.2059    0.2255    0.0000 C   0  0  0  0  0  0  0  0  0  0  0  0
   -5.5050   -0.5245    0.0000 C   0  0  0  0  0  0  0  0  0  0  0  0
   -5.5050   -2.0245    0.0000 C   0  0  0  0  0  0  0  0  0  0  0  0
   -8.4003   -1.5140    0.0000 C   0  0  0  0  0  0  0  0  0  0  0  0
   -4.2059   -2.7745    0.0000 C   0  0  0  0  0  0  0  0  0  0  0  0
   -2.9069   -2.0245    0.0000 C   0  0  0  0  0  0  0  0  0  0  0  0
   -2.9069   -0.5245    0.0000 C   0  0  0  0  0  0  0  0  0  0  0  0
   -1.6078   -1.2745    0.0000 O   0  0  0  0  0  0  0  0  0  0  0  0
   -6.0180    0.8850    0.0000 O   0  0  0  0  0  0  0  0  0  0  0  0
   -4.2059    1.7255    0.0000 O   0  0  0  0  0  0  0  0  0  0  0  0
   -7.5887    1.9435    0.0000 O   0  0  0  0  0  0  0  0  0  0  0  0
   -4.6323    4.8559    0.0000 O   0  0  0  0  0  0  0  0  0  0  0  0
    1.3300   -0.2803    0.0000 O   0  0  0  0  0  0  0  0  0  0  0  0
  1  2  1  0
  2  3  1  0
  2  4  1  0
  4  5  2  0
  5  6  1  0
  6  7  1  0
  7  8  1  6
  7  9  1  0
  9 10  1  0
 10 11  1  0
  4 11  1  0
 11 12  1  6
 11 13  1  0
 13 14  1  0
 14 15  1  6
 15 16  1  0
 16 17  1  0
 16 18  1  0
 18 19  1  0
 19 20  1  0
  7 20  1  0
 14 20  1  0
 20 21  1  1
 15 22  1  0
 14 23  1  0
 10 23  1  0
 13 24  2  0
 10 25  1  6
  6 26  2  0
M  END
>  <cdk:Title>  (89) 
Cinncassiol C2

>  <1A2>  (89) 
N

>  <2A6>  (89) 
N

>  <2B6>  (89) 
N

>  <2C8>  (89) 
N

>  <2C9>  (89) 
N

>  <2C19>  (89) 
N

>  <2D6>  (89) 
N

>  <2E1>  (89) 
N

>  <3A4>  (89) 
N

>  <Citation>  (89) 
Nucleic Acids Res. 2018. Jan 4;46(D1):D608-17. PMID:29140435
Nucleic Acids Res. 2018 Jan 4;46(D1):D1074-D1082. PMID:29126136
Nucleic Acids Res., 45:D380-388 (2017).  PMID:27924025
Nucleic Acids Res. 2016 Jan 4;44(D1):D1202-13. PMID:26400175

>  <ROMol>  (89) 
<rdkit.Chem.rdchem.Mol object at 0x7c29060edaf0>

>  <Drug_like>  (89) 
True

$$$$
Leontogenin
     RDKit          2D

 32 37  0  0  0  0  0  0  0  0999 V2000
   -8.1655   -4.9279    0.0000 C   0  0  0  0  0  0  0  0  0  0  0  0
   -5.2327   -5.1330    0.0000 C   0  0  0  0  0  0  0  0  0  0  0  0
   -3.8623   -5.7431    0.0000 C   0  0  0  0  0  0  0  0  0  0  0  0
   -2.6488   -4.8614    0.0000 C   0  0  0  0  0  0  0  0  0  0  0  0
   -2.8056   -3.3697    0.0000 C   0  0  0  0  0  0  0  0  0  0  0  0
   -1.3790   -3.8332    0.0000 C   0  0  0  0  0  0  0  0  0  0  0  0
   -1.9891   -5.2035    0.0000 C   0  0  0  0  0  0  0  0  0  0  0  0
   -0.4974   -2.6197    0.0000 C   0  0  0  0  0  0  0  0  0  0  0  0
   -1.3790   -1.4061    0.0000 C   0  0  0  0  0  0  0  0  0  0  0  0
   -0.4974   -0.1926    0.0000 C   0  0  0  0  0  0  0  0  0  0  0  0
    0.9292   -0.6561    0.0000 C   0  0  0  0  0  0  0  0  0  0  0  0
    2.2283    0.0939    0.0000 C   0  0  0  0  0  0  0  0  0  0  0  0
    3.5273   -0.6561    0.0000 C   0  0  0  0  0  0  0  0  0  0  0  0
    3.5273   -2.1561    0.0000 C   0  0  0  0  0  0  0  0  0  0  0  0
    2.2283   -2.9061    0.0000 C   0  0  0  0  0  0  0  0  0  0  0  0
    0.9292   -2.1561    0.0000 C   0  0  0  0  0  0  0  0  0  0  0  0
    0.6219   -5.0800    0.0000 C   0  0  0  0  0  0  0  0  0  0  0  0
    4.6420    0.3476    0.0000 C   0  0  0  0  0  0  0  0  0  0  0  0
    5.5505   -2.4485    0.0000 C   0  0  0  0  0  0  0  0  0  0  0  0
    6.1338    0.1908    0.0000 C   0  0  0  0  0  0  0  0  0  0  0  0
    7.0155    1.4043    0.0000 C   0  0  0  0  0  0  0  0  0  0  0  0
    6.4054    2.7746    0.0000 C   0  0  0  0  0  0  0  0  0  0  0  0
    4.9136    2.9314    0.0000 C   0  0  0  0  0  0  0  0  0  0  0  0
    4.0319    1.7179    0.0000 C   0  0  0  0  0  0  0  0  0  0  0  0
    2.5401    1.5611    0.0000 C   0  0  0  0  0  0  0  0  0  0  0  0
    2.5401    3.5411    0.0000 C   0  0  0  0  0  0  0  0  0  0  0  0
    3.8392    4.2911    0.0000 O   0  0  0  0  0  0  0  0  0  0  0  0
    2.5619    4.2640    0.0000 O   0  0  0  0  0  0  0  0  0  0  0  0
    7.8608    3.1375    0.0000 O   0  0  0  0  0  0  0  0  0  0  0  0
   -2.8056   -1.8697    0.0000 O   0  0  0  0  0  0  0  0  0  0  0  0
   -4.1759   -2.7596    0.0000 O   0  0  0  0  0  0  0  0  0  0  0  0
   -5.3895   -3.6412    0.0000 C   0  0  0  0  0  0  0  0  0  0  0  0
  1  2  1  0
  2  3  1  0
  3  4  1  0
  5  4  1  6
  5  6  1  0
  6  7  1  0
  6  8  1  0
  8  9  1  0
  9 10  1  0
 10 11  1  0
 11 12  1  0
 12 13  1  0
 13 14  1  0
 14 15  1  0
 15 16  1  0
 11 16  1  0
  8 16  1  0
 16 17  1  1
 13 18  1  0
 18 19  1  6
 18 20  1  0
 20 21  1  0
 21 22  1  0
 22 23  1  0
 23 24  1  0
 18 24  1  0
 24 25  1  0
 12 25  1  0
 25 26  1  0
 26 27  2  0
 24 28  1  1
 22 29  1  0
  9 30  1  0
  5 30  1  0
  5 31  1  0
 31 32  1  0
  2 32  1  0
M  END
>  <cdk:Title>  (90) 
Leontogenin

>  <1A2>  (90) 
N

>  <2A6>  (90) 
N

>  <2B6>  (90) 
N

>  <2C8>  (90) 
N

>  <2C9>  (90) 
N

>  <2C19>  (90) 
N

>  <2D6>  (90) 
N

>  <2E1>  (90) 
N

>  <3A4>  (90) 
N

>  <Citation>  (90) 
Nucleic Acids Res. 2018. Jan 4;46(D1):D608-17. PMID:29140435
Nucleic Acids Res. 2018 Jan 4;46(D1):D1074-D1082. PMID:29126136
Nucleic Acids Res., 45:D380-388 (2017).  PMID:27924025
Nucleic Acids Res. 2016 Jan 4;44(D1):D1202-13. PMID:26400175

>  <ROMol>  (90) 
<rdkit.Chem.rdchem.Mol object at 0x7c29060ede70>

>  <Drug_like>  (90) 
True

$$$$
Gibberellin a102
     RDKit          2D

 27 30  0  0  0  0  0  0  0  0999 V2000
   -2.3100    0.4855    0.0000 C   0  0  0  0  0  0  0  0  0  0  0  0
   -2.3100   -1.0145    0.0000 C   0  0  0  0  0  0  0  0  0  0  0  0
   -0.8900   -1.4845    0.0000 C   0  0  0  0  0  0  0  0  0  0  0  0
   -0.0000   -0.2645    0.0000 C   0  0  0  0  0  0  0  0  0  0  0  0
   -0.8900    0.9455    0.0000 C   0  0  0  0  0  0  0  0  0  0  0  0
   -0.4900    2.3955    0.0000 C   0  0  0  0  0  0  0  0  0  0  0  0
    0.8900    2.9855    0.0000 C   0  0  0  0  0  0  0  0  0  0  0  0
    2.2100    2.2655    0.0000 C   0  0  0  0  0  0  0  0  0  0  0  0
    0.5000    1.5755    0.0000 C   0  0  0  0  0  0  0  0  0  0  0  0
    2.4800    0.7955    0.0000 C   0  0  0  0  0  0  0  0  0  0  0  0
    1.4900   -0.3345    0.0000 C   0  0  0  0  0  0  0  0  0  0  0  0
    1.0883   -1.7797    0.0000 O   0  0  0  0  0  0  0  0  0  0  0  0
    3.9261    0.3970    0.0000 C   0  0  0  0  0  0  0  0  0  0  0  0
    3.4251    3.1450    0.0000 O   0  0  0  0  0  0  0  0  0  0  0  0
   -1.2592   -2.9384    0.0000 C   0  0  0  0  0  0  0  0  0  0  0  0
   -2.7028   -3.3456    0.0000 O   0  0  0  0  0  0  0  0  0  0  0  0
   -0.1846   -3.9850    0.0000 O   0  0  0  0  0  0  0  0  0  0  0  0
   -3.6100   -1.7645    0.0000 C   0  0  0  0  0  0  0  0  0  0  0  0
   -4.9100   -1.0145    0.0000 C   0  0  0  0  0  0  0  0  0  0  0  0
   -4.9100    0.4855    0.0000 C   0  0  0  0  0  0  0  0  0  0  0  0
   -3.6100    1.2355    0.0000 C   0  0  0  0  0  0  0  0  0  0  0  0
   -5.4996   -4.0169    0.0000 C   0  0  0  0  0  0  0  0  0  0  0  0
   -2.7689   -4.0762    0.0000 C   0  0  0  0  0  0  0  0  0  0  0  0
   -3.7332   -5.2252    0.0000 O   0  0  0  0  0  0  0  0  0  0  0  0
   -1.2917   -4.3368    0.0000 O   0  0  0  0  0  0  0  0  0  0  0  0
   -2.1025    2.4546    0.0000 C   0  0  0  0  0  0  0  0  0  0  0  0
   -3.3158    3.3366    0.0000 O   0  0  0  0  0  0  0  0  0  0  0  0
  1  2  1  0
  2  3  1  0
  4  3  1  6
  4  5  1  0
  1  5  1  0
  5  6  1  0
  6  7  1  0
  7  8  1  0
  8  9  1  0
  4  9  1  0
  8 10  1  0
 10 11  1  0
  4 11  1  0
 11 12  1  0
 10 13  2  0
  8 14  1  6
  3 15  1  0
 15 16  2  0
 15 17  1  0
  2 18  1  0
 18 19  1  0
 19 20  1  0
 20 21  1  0
  1 21  1  0
 18 22  1  6
 18 23  1  0
 23 24  1  0
 23 25  2  0
  1 26  1  6
 26 27  2  0
M  END
>  <cdk:Title>  (91) 
Gibberellin a102

>  <1A2>  (91) 
N

>  <2A6>  (91) 
N

>  <2B6>  (91) 
N

>  <2C8>  (91) 
N

>  <2C9>  (91) 
N

>  <2C19>  (91) 
N

>  <2D6>  (91) 
N

>  <2E1>  (91) 
N

>  <3A4>  (91) 
N

>  <Citation>  (91) 
Nucleic Acids Res. 2018. Jan 4;46(D1):D608-17. PMID:29140435
Nucleic Acids Res. 2018 Jan 4;46(D1):D1074-D1082. PMID:29126136
Nucleic Acids Res., 45:D380-388 (2017).  PMID:27924025
Nucleic Acids Res. 2016 Jan 4;44(D1):D1202-13. PMID:26400175

>  <ROMol>  (91) 
<rdkit.Chem.rdchem.Mol object at 0x7c29060edf50>

>  <Drug_like>  (91) 
True

$$$$
GANODERIC aldehyde a
     RDKit          2D

 33 36  0  0  0  0  0  0  0  0999 V2000
   12.6385    1.6875    0.0000 C   0  0  0  0  0  0  0  0  0  0  0  0
   11.3400    2.4384    0.0000 C   0  0  0  0  0  0  0  0  0  0  0  0
   10.0405    1.6892    0.0000 C   0  0  0  0  0  0  0  0  0  0  0  0
    8.7419    2.4401    0.0000 C   0  0  0  0  0  0  0  0  0  0  0  0
    7.4424    1.6909    0.0000 C   0  0  0  0  0  0  0  0  0  0  0  0
    4.8972    3.1626    0.0000 C   0  0  0  0  0  0  0  0  0  0  0  0
    3.9338    4.3123    0.0000 C   0  0  0  0  0  0  0  0  0  0  0  0
    2.3502    1.6943    0.0000 C   0  0  0  0  0  0  0  0  0  0  0  0
    3.2302    0.4843    0.0000 C   0  0  0  0  0  0  0  0  0  0  0  0
    2.3502   -0.7257    0.0000 C   0  0  0  0  0  0  0  0  0  0  0  0
    0.9202   -0.2657    0.0000 C   0  0  0  0  0  0  0  0  0  0  0  0
    1.2313   -3.1892    0.0000 C   0  0  0  0  0  0  0  0  0  0  0  0
   -0.3798   -1.0157    0.0000 C   0  0  0  0  0  0  0  0  0  0  0  0
   -0.3798   -2.5157    0.0000 C   0  0  0  0  0  0  0  0  0  0  0  0
   -1.6798   -3.2657    0.0000 C   0  0  0  0  0  0  0  0  0  0  0  0
   -2.9798   -2.5157    0.0000 C   0  0  0  0  0  0  0  0  0  0  0  0
   -4.2798   -3.2657    0.0000 C   0  0  0  0  0  0  0  0  0  0  0  0
   -5.8609   -5.1504    0.0000 C   0  0  0  0  0  0  0  0  0  0  0  0
   -3.2746   -6.0285    0.0000 C   0  0  0  0  0  0  0  0  0  0  0  0
   -5.5798   -2.5157    0.0000 C   0  0  0  0  0  0  0  0  0  0  0  0
   -5.5798   -1.0157    0.0000 C   0  0  0  0  0  0  0  0  0  0  0  0
   -4.2798   -0.2657    0.0000 C   0  0  0  0  0  0  0  0  0  0  0  0
   -2.9798   -1.0157    0.0000 C   0  0  0  0  0  0  0  0  0  0  0  0
   -2.9798    1.9243    0.0000 C   0  0  0  0  0  0  0  0  0  0  0  0
   -1.6798   -0.2657    0.0000 C   0  0  0  0  0  0  0  0  0  0  0  0
   -1.6798    1.2343    0.0000 C   0  0  0  0  0  0  0  0  0  0  0  0
   -0.3798    1.9843    0.0000 C   0  0  0  0  0  0  0  0  0  0  0  0
    0.9202    1.2343    0.0000 C   0  0  0  0  0  0  0  0  0  0  0  0
    1.1805    3.6805    0.0000 C   0  0  0  0  0  0  0  0  0  0  0  0
   -3.8101    2.4646    0.0000 O   0  0  0  0  0  0  0  0  0  0  0  0
   -7.0571   -2.2554    0.0000 O   0  0  0  0  0  0  0  0  0  0  0  0
   11.3410    3.9384    0.0000 C   0  0  0  0  0  0  0  0  0  0  0  0
   12.6405    4.6875    0.0000 O   0  0  0  0  0  0  0  0  0  0  0  0
  1  2  1  0
  2  3  2  0
  3  4  1  0
  4  5  1  0
  5  6  1  0
  6  7  1  0
  6  8  1  0
  8  9  1  0
  9 10  1  0
 10 11  1  0
 11 12  1  1
 11 13  1  0
 13 14  1  0
 14 15  1  0
 15 16  1  0
 16 17  1  0
 17 18  1  0
 17 19  1  0
 17 20  1  0
 20 21  1  0
 21 22  1  0
 22 23  1  0
 16 23  1  0
 23 24  1  6
 23 25  1  0
 13 25  2  0
 25 26  1  0
 26 27  1  0
 27 28  1  0
  8 28  1  0
 11 28  1  0
 28 29  1  1
 26 30  2  0
 20 31  1  0
  2 32  1  0
 32 33  2  0
M  END
>  <cdk:Title>  (92) 
GANODERIC aldehyde a

>  <1A2>  (92) 
N

>  <2A6>  (92) 
N

>  <2B6>  (92) 
N

>  <2C8>  (92) 
N

>  <2C9>  (92) 
N

>  <2C19>  (92) 
N

>  <2D6>  (92) 
N

>  <2E1>  (92) 
N

>  <3A4>  (92) 
N

>  <Citation>  (92) 
Nucleic Acids Res. 2018. Jan 4;46(D1):D608-17. PMID:29140435
Nucleic Acids Res. 2018 Jan 4;46(D1):D1074-D1082. PMID:29126136
Nucleic Acids Res., 45:D380-388 (2017).  PMID:27924025
Nucleic Acids Res. 2016 Jan 4;44(D1):D1202-13. PMID:26400175

>  <ROMol>  (92) 
<rdkit.Chem.rdchem.Mol object at 0x7c29060edfc0>

>  <Drug_like>  (92) 
True

$$$$
3_7(11)-Eudesmadien-2-one
     RDKit          2D

 16 17  0  0  0  0  0  0  0  0999 V2000
   -3.4829    4.6801    0.0000 C   0  0  0  0  0  0  0  0  0  0  0  0
   -3.4832    3.1801    0.0000 C   0  0  0  0  0  0  0  0  0  0  0  0
   -5.1981    2.1904    0.0000 C   0  0  0  0  0  0  0  0  0  0  0  0
   -2.1843    2.4299    0.0000 C   0  0  0  0  0  0  0  0  0  0  0  0
   -2.1843    0.9299    0.0000 C   0  0  0  0  0  0  0  0  0  0  0  0
   -0.8843    0.1799    0.0000 C   0  0  0  0  0  0  0  0  0  0  0  0
    0.4157    0.9299    0.0000 C   0  0  0  0  0  0  0  0  0  0  0  0
    0.4157   -2.0101    0.0000 C   0  0  0  0  0  0  0  0  0  0  0  0
    1.7157    0.1799    0.0000 C   0  0  0  0  0  0  0  0  0  0  0  0
    3.0157    0.9299    0.0000 C   0  0  0  0  0  0  0  0  0  0  0  0
    3.0157    2.4299    0.0000 C   0  0  0  0  0  0  0  0  0  0  0  0
    1.7157    3.1799    0.0000 C   0  0  0  0  0  0  0  0  0  0  0  0
    1.7157    4.6799    0.0000 C   0  0  0  0  0  0  0  0  0  0  0  0
    0.4157    2.4299    0.0000 C   0  0  0  0  0  0  0  0  0  0  0  0
   -0.8843    3.1799    0.0000 C   0  0  0  0  0  0  0  0  0  0  0  0
    4.3146    0.1797    0.0000 O   0  0  0  0  0  0  0  0  0  0  0  0
  1  2  1  0
  2  3  1  0
  2  4  2  3
  4  5  1  0
  5  6  1  0
  6  7  1  0
  7  8  1  6
  7  9  1  0
  9 10  1  0
 10 11  1  0
 11 12  2  0
 12 13  1  0
 12 14  1  0
  7 14  1  0
 14 15  1  0
  4 15  1  0
 10 16  2  0
M  END
>  <cdk:Title>  (93) 
3_7(11)-Eudesmadien-2-one

>  <1A2>  (93) 
N

>  <2A6>  (93) 
N

>  <2B6>  (93) 
N

>  <2C8>  (93) 
N

>  <2C9>  (93) 
N

>  <2C19>  (93) 
N

>  <2D6>  (93) 
N

>  <2E1>  (93) 
N

>  <3A4>  (93) 
N

>  <Citation>  (93) 
Nucleic Acids Res. 2018. Jan 4;46(D1):D608-17. PMID:29140435
Nucleic Acids Res. 2018 Jan 4;46(D1):D1074-D1082. PMID:29126136
Nucleic Acids Res., 45:D380-388 (2017).  PMID:27924025
Nucleic Acids Res. 2016 Jan 4;44(D1):D1202-13. PMID:26400175

>  <ROMol>  (93) 
<rdkit.Chem.rdchem.Mol object at 0x7c29060ee180>

>  <Drug_like>  (93) 
True

$$$$
(2R)-2-Acetyltetrahydrofuran-2alpha_3alpha_4alpha-triol
     RDKit          2D

 11 11  0  0  0  0  0  0  0  0999 V2000
   -3.6399   -2.8086    0.0000 O   0  0  0  0  0  0  0  0  0  0  0  0
   -2.5246   -1.8056    0.0000 C   0  0  0  0  0  0  0  0  0  0  0  0
   -3.6330   -0.8058    0.0000 C   0  0  0  0  0  0  0  0  0  0  0  0
   -3.0301    0.5699    0.0000 O   0  0  0  0  0  0  0  0  0  0  0  0
   -1.5372    0.4042    0.0000 C   0  0  0  0  0  0  0  0  0  0  0  0
    0.4322    0.6084    0.0000 C   0  0  0  0  0  0  0  0  0  0  0  0
    1.3123   -0.6063    0.0000 O   0  0  0  0  0  0  0  0  0  0  0  0
    1.0442    1.9779    0.0000 C   0  0  0  0  0  0  0  0  0  0  0  0
   -1.5318    1.9042    0.0000 O   0  0  0  0  0  0  0  0  0  0  0  0
   -1.2256   -1.0556    0.0000 C   0  0  0  0  0  0  0  0  0  0  0  0
   -0.6151   -2.4257    0.0000 O   0  0  0  0  0  0  0  0  0  0  0  0
  1  2  1  0
  2  3  1  0
  3  4  1  0
  4  5  1  0
  5  6  1  0
  6  7  2  0
  6  8  1  0
  5  9  1  1
  5 10  1  0
  2 10  1  0
 10 11  1  0
M  END
>  <cdk:Title>  (94) 
(2R)-2-Acetyltetrahydrofuran-2alpha_3alpha_4alpha-triol

>  <1A2>  (94) 
N

>  <2A6>  (94) 
N

>  <2B6>  (94) 
N

>  <2C8>  (94) 
N

>  <2C9>  (94) 
N

>  <2C19>  (94) 
N

>  <2D6>  (94) 
N

>  <2E1>  (94) 
N

>  <3A4>  (94) 
N

>  <Citation>  (94) 
Nucleic Acids Res. 2018. Jan 4;46(D1):D608-17. PMID:29140435
Nucleic Acids Res. 2018 Jan 4;46(D1):D1074-D1082. PMID:29126136
Nucleic Acids Res., 45:D380-388 (2017).  PMID:27924025
Nucleic Acids Res. 2016 Jan 4;44(D1):D1202-13. PMID:26400175

>  <ROMol>  (94) 
<rdkit.Chem.rdchem.Mol object at 0x7c29060ee3b0>

>  <Drug_like>  (94) 
True

$$$$
(6R)-2-Methyl-6-[(S)-4-methylene-2-cyclohexene-1beta-yl]-2-heptene-4-ol
     RDKit          2D

 16 16  0  0  0  0  0  0  0  0999 V2000
    5.6509    3.1415    0.0000 C   0  0  0  0  0  0  0  0  0  0  0  0
    5.0864    4.5312    0.0000 C   0  0  0  0  0  0  0  0  0  0  0  0
    6.0076    5.7150    0.0000 C   0  0  0  0  0  0  0  0  0  0  0  0
    3.6006    4.7371    0.0000 C   0  0  0  0  0  0  0  0  0  0  0  0
    2.6793    3.5534    0.0000 C   0  0  0  0  0  0  0  0  0  0  0  0
    0.7181    3.8252    0.0000 C   0  0  0  0  0  0  0  0  0  0  0  0
   -0.4980    2.2626    0.0000 C   0  0  0  0  0  0  0  0  0  0  0  0
   -0.9588    0.8352    0.0000 C   0  0  0  0  0  0  0  0  0  0  0  0
   -3.4101    2.6663    0.0000 C   0  0  0  0  0  0  0  0  0  0  0  0
   -4.8219    2.3390    0.0000 C   0  0  0  0  0  0  0  0  0  0  0  0
   -5.8612    3.3927    0.0000 C   0  0  0  0  0  0  0  0  0  0  0  0
   -5.3892    4.8148    0.0000 C   0  0  0  0  0  0  0  0  0  0  0  0
   -6.3996    5.9235    0.0000 C   0  0  0  0  0  0  0  0  0  0  0  0
   -3.9774    5.1420    0.0000 C   0  0  0  0  0  0  0  0  0  0  0  0
   -2.9381    4.0883    0.0000 C   0  0  0  0  0  0  0  0  0  0  0  0
    2.2185    2.1259    0.0000 O   0  0  0  0  0  0  0  0  0  0  0  0
  1  2  1  0
  2  3  1  0
  2  4  2  0
  4  5  1  0
  5  6  1  0
  6  7  1  0
  7  8  1  0
  7  9  1  0
  9 10  1  0
 10 11  2  0
 11 12  1  0
 12 13  2  0
 12 14  1  0
 14 15  1  0
  9 15  1  0
  5 16  1  0
M  END
>  <cdk:Title>  (95) 
(6R)-2-Methyl-6-[(S)-4-methylene-2-cyclohexene-1beta-yl]-2-heptene-4-ol

>  <1A2>  (95) 
N

>  <2A6>  (95) 
N

>  <2B6>  (95) 
N

>  <2C8>  (95) 
N

>  <2C9>  (95) 
N

>  <2C19>  (95) 
N

>  <2D6>  (95) 
N

>  <2E1>  (95) 
N

>  <3A4>  (95) 
N

>  <Citation>  (95) 
Nucleic Acids Res. 2018. Jan 4;46(D1):D608-17. PMID:29140435
Nucleic Acids Res. 2018 Jan 4;46(D1):D1074-D1082. PMID:29126136
Nucleic Acids Res., 45:D380-388 (2017).  PMID:27924025
Nucleic Acids Res. 2016 Jan 4;44(D1):D1202-13. PMID:26400175

>  <ROMol>  (95) 
<rdkit.Chem.rdchem.Mol object at 0x7c29060ee500>

>  <Drug_like>  (95) 
True

$$$$
Macrocarpal e
     RDKit          2D

 34 36  0  0  0  0  0  0  0  0999 V2000
    3.5766    6.1385    0.0000 C   0  0  0  0  0  0  0  0  0  0  0  0
    4.8758    5.3886    0.0000 C   0  0  0  0  0  0  0  0  0  0  0  0
    6.3530    5.1283    0.0000 C   0  0  0  0  0  0  0  0  0  0  0  0
    3.2947    3.5040    0.0000 C   0  0  0  0  0  0  0  0  0  0  0  0
    0.3993    4.0142    0.0000 C   0  0  0  0  0  0  0  0  0  0  0  0
   -1.4902    1.7618    0.0000 C   0  0  0  0  0  0  0  0  0  0  0  0
   -2.7902    1.0118    0.0000 C   0  0  0  0  0  0  0  0  0  0  0  0
   -2.7902   -0.4882    0.0000 C   0  0  0  0  0  0  0  0  0  0  0  0
   -1.4902   -1.2382    0.0000 C   0  0  0  0  0  0  0  0  0  0  0  0
   -3.3798   -3.4906    0.0000 C   0  0  0  0  0  0  0  0  0  0  0  0
   -0.1902   -0.4882    0.0000 C   0  0  0  0  0  0  0  0  0  0  0  0
    1.1098   -1.2382    0.0000 C   0  0  0  0  0  0  0  0  0  0  0  0
    2.4098   -0.4882    0.0000 C   0  0  0  0  0  0  0  0  0  0  0  0
    2.4098    1.0118    0.0000 C   0  0  0  0  0  0  0  0  0  0  0  0
    1.1098    1.7618    0.0000 C   0  0  0  0  0  0  0  0  0  0  0  0
   -0.1902    1.0118    0.0000 C   0  0  0  0  0  0  0  0  0  0  0  0
   -0.1902    3.9518    0.0000 C   0  0  0  0  0  0  0  0  0  0  0  0
    3.4147   -3.2511    0.0000 C   0  0  0  0  0  0  0  0  0  0  0  0
    1.5244   -5.5029    0.0000 C   0  0  0  0  0  0  0  0  0  0  0  0
    4.7139   -2.5014    0.0000 C   0  0  0  0  0  0  0  0  0  0  0  0
    4.3786   -4.4004    0.0000 O   0  0  0  0  0  0  0  0  0  0  0  0
   -1.0710    6.5601    0.0000 C   0  0  0  0  0  0  0  0  0  0  0  0
   -0.3209    7.8601    0.0000 C   0  0  0  0  0  0  0  0  0  0  0  0
   -1.0708    9.1601    0.0000 C   0  0  0  0  0  0  0  0  0  0  0  0
   -0.3205   10.4590    0.0000 C   0  0  0  0  0  0  0  0  0  0  0  0
   -1.0703   11.7582    0.0000 O   0  0  0  0  0  0  0  0  0  0  0  0
   -2.5708    9.1602    0.0000 C   0  0  0  0  0  0  0  0  0  0  0  0
   -3.3209    7.8603    0.0000 C   0  0  0  0  0  0  0  0  0  0  0  0
   -4.8209    7.8603    0.0000 C   0  0  0  0  0  0  0  0  0  0  0  0
   -5.5708    9.1594    0.0000 O   0  0  0  0  0  0  0  0  0  0  0  0
   -2.5710    6.5602    0.0000 C   0  0  0  0  0  0  0  0  0  0  0  0
   -3.8702    5.8105    0.0000 O   0  0  0  0  0  0  0  0  0  0  0  0
   -3.3210   10.4592    0.0000 O   0  0  0  0  0  0  0  0  0  0  0  0
    1.1791    7.8600    0.0000 O   0  0  0  0  0  0  0  0  0  0  0  0
  1  2  1  0
  2  3  1  0
  2  4  1  0
  4  5  1  0
  5  6  1  0
  6  7  1  0
  7  8  1  0
  8  9  1  0
  9 10  1  0
  9 11  1  0
 11 12  2  0
 12 13  1  0
 13 14  1  0
 14 15  1  0
 15 16  1  0
  6 16  1  0
 11 16  1  0
 16 17  1  6
 13 18  1  0
 18 19  1  0
 18 20  1  0
 18 21  1  0
  5 22  1  0
 22 23  2  0
 23 24  1  0
 24 25  1  0
 25 26  2  0
 24 27  2  0
 27 28  1  0
 28 29  1  0
 29 30  2  0
 28 31  2  0
 22 31  1  0
 31 32  1  0
 27 33  1  0
 23 34  1  0
M  END
>  <cdk:Title>  (96) 
Macrocarpal e

>  <1A2>  (96) 
N

>  <2A6>  (96) 
N

>  <2B6>  (96) 
N

>  <2C8>  (96) 
N

>  <2C9>  (96) 
N

>  <2C19>  (96) 
N

>  <2D6>  (96) 
N

>  <2E1>  (96) 
N

>  <3A4>  (96) 
N

>  <Citation>  (96) 
Nucleic Acids Res. 2018. Jan 4;46(D1):D608-17. PMID:29140435
Nucleic Acids Res. 2018 Jan 4;46(D1):D1074-D1082. PMID:29126136
Nucleic Acids Res., 45:D380-388 (2017).  PMID:27924025
Nucleic Acids Res. 2016 Jan 4;44(D1):D1202-13. PMID:26400175

>  <ROMol>  (96) 
<rdkit.Chem.rdchem.Mol object at 0x7c29060ee650>

>  <Drug_like>  (96) 
True

$$$$
17-Epiestriol 17-O-(beta-D-glucuronide)(1-)
     RDKit          2D

 33 37  0  0  0  0  0  0  0  0999 V2000
    5.7837    3.7168    0.0000 O   0  0  0  0  0  0  0  0  0  0  0  0
    4.4847    2.9668    0.0000 C   0  0  0  0  0  0  0  0  0  0  0  0
    2.9908    2.6962    0.0000 O   0  0  0  0  0  0  0  0  0  0  0  0
    2.4738    1.2873    0.0000 C   0  0  0  0  0  0  0  0  0  0  0  0
    3.4290    0.1437    0.0000 C   0  0  0  0  0  0  0  0  0  0  0  0
    4.9139    0.3937    0.0000 C   0  0  0  0  0  0  0  0  0  0  0  0
    5.4399    1.8232    0.0000 C   0  0  0  0  0  0  0  0  0  0  0  0
    6.7366    1.0692    0.0000 O   0  0  0  0  0  0  0  0  0  0  0  0
    4.9045   -1.1062    0.0000 O   0  0  0  0  0  0  0  0  0  0  0  0
    2.1269   -0.6010    0.0000 O   0  0  0  0  0  0  0  0  0  0  0  0
    1.1767    2.0405    0.0000 C   0  0  0  0  0  0  0  0  0  0  0  0
   -0.1242    1.2937    0.0000 O   0  0  0  0  0  0  0  0  0  0  0  0
    1.1804    3.5405    0.0000 O   0  0  0  0  0  0  0  0  0  0  0  0
    5.7837    5.6968    0.0000 C   0  0  0  0  0  0  0  0  0  0  0  0
    5.4720    7.1566    0.0000 C   0  0  0  0  0  0  0  0  0  0  0  0
    6.7710    7.9066    0.0000 C   0  0  0  0  0  0  0  0  0  0  0  0
    6.7704    9.4075    0.0000 C   0  0  0  0  0  0  0  0  0  0  0  0
    5.4709   10.1582    0.0000 C   0  0  0  0  0  0  0  0  0  0  0  0
    4.1719    9.4082    0.0000 C   0  0  0  0  0  0  0  0  0  0  0  0
    4.1724    7.9073    0.0000 C   0  0  0  0  0  0  0  0  0  0  0  0
    5.4703   11.6591    0.0000 C   0  0  0  0  0  0  0  0  0  0  0  0
    6.7693   12.4091    0.0000 C   0  0  0  0  0  0  0  0  0  0  0  0
    8.0689   11.6584    0.0000 C   0  0  0  0  0  0  0  0  0  0  0  0
    8.0694   10.1575    0.0000 C   0  0  0  0  0  0  0  0  0  0  0  0
    6.7688   13.9100    0.0000 C   0  0  0  0  0  0  0  0  0  0  0  0
    5.4692   14.6607    0.0000 C   0  0  0  0  0  0  0  0  0  0  0  0
    5.4694   16.1607    0.0000 O   0  0  0  0  0  0  0  0  0  0  0  0
    4.1702   13.9107    0.0000 C   0  0  0  0  0  0  0  0  0  0  0  0
    4.1708   12.4098    0.0000 C   0  0  0  0  0  0  0  0  0  0  0  0
    7.8794    6.9069    0.0000 C   0  0  0  0  0  0  0  0  0  0  0  0
    7.2716    5.5398    0.0000 C   0  0  0  0  0  0  0  0  0  0  0  0
    8.6983    5.0766    0.0000 O   0  0  0  0  0  0  0  0  0  0  0  0
    3.0940    5.4277    0.0000 C   0  0  0  0  0  0  0  0  0  0  0  0
  1  2  1  0
  2  3  1  0
  3  4  1  0
  4  5  1  0
  5  6  1  0
  6  7  1  0
  2  7  1  0
  7  8  1  0
  6  9  1  0
  5 10  1  0
  4 11  1  0
 11 12  1  0
 11 13  2  0
  1 14  1  0
 14 15  1  0
 15 16  1  0
 16 17  1  0
 17 18  1  0
 18 19  1  0
 19 20  1  0
 15 20  1  0
 18 21  1  0
 21 22  2  0
 22 23  1  0
 23 24  1  0
 17 24  1  0
 22 25  1  0
 25 26  2  0
 26 27  1  0
 26 28  1  0
 28 29  2  0
 21 29  1  0
 16 30  1  0
 30 31  1  0
 14 31  1  0
 31 32  1  0
 15 33  1  1
M  END
>  <cdk:Title>  (97) 
17-Epiestriol 17-O-(beta-D-glucuronide)(1-)

>  <1A2>  (97) 
N

>  <2A6>  (97) 
N

>  <2B6>  (97) 
N

>  <2C8>  (97) 
N

>  <2C9>  (97) 
N

>  <2C19>  (97) 
N

>  <2D6>  (97) 
N

>  <2E1>  (97) 
N

>  <3A4>  (97) 
N

>  <Citation>  (97) 
Nucleic Acids Res. 2018. Jan 4;46(D1):D608-17. PMID:29140435
Nucleic Acids Res. 2018 Jan 4;46(D1):D1074-D1082. PMID:29126136
Nucleic Acids Res., 45:D380-388 (2017).  PMID:27924025
Nucleic Acids Res. 2016 Jan 4;44(D1):D1202-13. PMID:26400175

>  <ROMol>  (97) 
<rdkit.Chem.rdchem.Mol object at 0x7c29060ee6c0>

>  <Drug_like>  (97) 
True

$$$$
5_6-Dimethylbicyclo[2.2.1]hepta-5-ene-2-ol
     RDKit          2D

 10 11  0  0  0  0  0  0  0  0999 V2000
   -4.3129   -0.0833    0.0000 C   0  0  0  0  0  0  0  0  0  0  0  0
   -4.7729   -1.5833    0.0000 C   0  0  0  0  0  0  0  0  0  0  0  0
   -3.4729   -0.8333    0.0000 C   0  0  0  0  0  0  0  0  0  0  0  0
   -3.4729    0.6667    0.0000 C   0  0  0  0  0  0  0  0  0  0  0  0
   -4.7729    1.4167    0.0000 C   0  0  0  0  0  0  0  0  0  0  0  0
   -6.0629    0.6667    0.0000 C   0  0  0  0  0  0  0  0  0  0  0  0
   -6.0629   -0.8333    0.0000 C   0  0  0  0  0  0  0  0  0  0  0  0
   -7.3631   -1.5813    0.0000 C   0  0  0  0  0  0  0  0  0  0  0  0
   -7.3631    1.4147    0.0000 C   0  0  0  0  0  0  0  0  0  0  0  0
   -1.0502    0.2398    0.0000 O   0  0  0  0  0  0  0  0  0  0  0  0
  1  2  1  0
  2  3  1  0
  3  4  1  0
  4  5  1  0
  1  5  1  0
  5  6  1  0
  6  7  2  0
  2  7  1  0
  7  8  1  0
  6  9  1  0
  4 10  1  0
M  END
>  <cdk:Title>  (98) 
5_6-Dimethylbicyclo[2.2.1]hepta-5-ene-2-ol

>  <1A2>  (98) 
N

>  <2A6>  (98) 
N

>  <2B6>  (98) 
N

>  <2C8>  (98) 
N

>  <2C9>  (98) 
N

>  <2C19>  (98) 
N

>  <2D6>  (98) 
N

>  <2E1>  (98) 
N

>  <3A4>  (98) 
N

>  <Citation>  (98) 
Nucleic Acids Res. 2018. Jan 4;46(D1):D608-17. PMID:29140435
Nucleic Acids Res. 2018 Jan 4;46(D1):D1074-D1082. PMID:29126136
Nucleic Acids Res., 45:D380-388 (2017).  PMID:27924025
Nucleic Acids Res. 2016 Jan 4;44(D1):D1202-13. PMID:26400175

>  <ROMol>  (98) 
<rdkit.Chem.rdchem.Mol object at 0x7c29060ee730>

>  <Drug_like>  (98) 
True

$$$$
Lactapiperanol D
     RDKit          2D

 23 26  0  0  0  0  0  0  0  0999 V2000
    1.6260   -4.0337    0.0000 C   0  0  0  0  0  0  0  0  0  0  0  0
    1.1130   -2.6242    0.0000 C   0  0  0  0  0  0  0  0  0  0  0  0
    2.0772   -1.4751    0.0000 O   0  0  0  0  0  0  0  0  0  0  0  0
   -0.3642   -2.3637    0.0000 O   0  0  0  0  0  0  0  0  0  0  0  0
   -1.0414   -0.5031    0.0000 C   0  0  0  0  0  0  0  0  0  0  0  0
   -1.0414    0.9969    0.0000 C   0  0  0  0  0  0  0  0  0  0  0  0
    0.0733    2.0006    0.0000 C   0  0  0  0  0  0  0  0  0  0  0  0
   -0.5368    3.3709    0.0000 C   0  0  0  0  0  0  0  0  0  0  0  0
    2.2593    4.2794    0.0000 C   0  0  0  0  0  0  0  0  0  0  0  0
   -1.1480    6.2466    0.0000 C   0  0  0  0  0  0  0  0  0  0  0  0
   -2.0286    3.2141    0.0000 C   0  0  0  0  0  0  0  0  0  0  0  0
   -2.3404    1.7469    0.0000 C   0  0  0  0  0  0  0  0  0  0  0  0
   -3.6395    0.9969    0.0000 C   0  0  0  0  0  0  0  0  0  0  0  0
   -4.3895    2.2959    0.0000 C   0  0  0  0  0  0  0  0  0  0  0  0
   -4.9385    0.2469    0.0000 C   0  0  0  0  0  0  0  0  0  0  0  0
   -3.6395   -0.5031    0.0000 C   0  0  0  0  0  0  0  0  0  0  0  0
   -4.7542   -1.5068    0.0000 C   0  0  0  0  0  0  0  0  0  0  0  0
   -6.4823    0.8717    0.0000 O   0  0  0  0  0  0  0  0  0  0  0  0
   -7.9741    0.7149    0.0000 C   0  0  0  0  0  0  0  0  0  0  0  0
   -4.1441   -2.8771    0.0000 O   0  0  0  0  0  0  0  0  0  0  0  0
   -2.6523   -2.7203    0.0000 C   0  0  0  0  0  0  0  0  0  0  0  0
   -2.3404   -1.2531    0.0000 C   0  0  0  0  0  0  0  0  0  0  0  0
   -1.1269   -2.1348    0.0000 O   0  0  0  0  0  0  0  0  0  0  0  0
  1  2  1  0
  2  3  2  0
  2  4  1  0
  4  5  1  0
  5  6  1  0
  6  7  1  0
  7  8  1  0
  8  9  1  0
  8 10  1  0
  8 11  1  0
 11 12  1  0
  6 12  1  0
 12 13  1  0
 13 14  1  1
 13 15  1  0
 16 15  1  6
 13 16  1  0
 16 17  1  0
 17 18  1  0
 18 19  1  0
 17 20  1  0
 20 21  1  0
 21 22  1  0
  5 22  1  0
 16 22  1  0
 22 23  1  1
M  END
>  <cdk:Title>  (99) 
Lactapiperanol D

>  <1A2>  (99) 
N

>  <2A6>  (99) 
N

>  <2B6>  (99) 
N

>  <2C8>  (99) 
N

>  <2C9>  (99) 
N

>  <2C19>  (99) 
N

>  <2D6>  (99) 
N

>  <2E1>  (99) 
N

>  <3A4>  (99) 
N

>  <Citation>  (99) 
Nucleic Acids Res. 2018. Jan 4;46(D1):D608-17. PMID:29140435
Nucleic Acids Res. 2018 Jan 4;46(D1):D1074-D1082. PMID:29126136
Nucleic Acids Res., 45:D380-388 (2017).  PMID:27924025
Nucleic Acids Res. 2016 Jan 4;44(D1):D1202-13. PMID:26400175

>  <ROMol>  (99) 
<rdkit.Chem.rdchem.Mol object at 0x7c29060ee8f0>

>  <Drug_like>  (99) 
True

$$$$
3beta-[(6-O-beta-D-Glucopyranosyl-beta-D-glucopyranosyl)oxy]-23_24_25_26_27-pent
     RDKit          2D

 49 54  0  0  0  0  0  0  0  0999 V2000
  -17.9607   -6.3932    0.0000 C   0  0  0  0  0  0  0  0  0  0  0  0
  -16.9955   -7.5415    0.0000 C   0  0  0  0  0  0  0  0  0  0  0  0
  -16.4813   -8.9506    0.0000 C   0  0  0  0  0  0  0  0  0  0  0  0
  -17.4444  -10.1005    0.0000 O   0  0  0  0  0  0  0  0  0  0  0  0
  -14.1006   -7.0284    0.0000 C   0  0  0  0  0  0  0  0  0  0  0  0
  -13.9967   -8.5210    0.0000 C   0  0  0  0  0  0  0  0  0  0  0  0
  -12.5447   -8.8819    0.0000 C   0  0  0  0  0  0  0  0  0  0  0  0
  -11.7452   -7.6102    0.0000 C   0  0  0  0  0  0  0  0  0  0  0  0
  -10.5523  -10.2973    0.0000 C   0  0  0  0  0  0  0  0  0  0  0  0
  -10.2673   -7.3488    0.0000 C   0  0  0  0  0  0  0  0  0  0  0  0
   -9.3029   -8.4976    0.0000 C   0  0  0  0  0  0  0  0  0  0  0  0
   -7.8250   -8.2362    0.0000 C   0  0  0  0  0  0  0  0  0  0  0  0
   -7.3115   -6.8260    0.0000 C   0  0  0  0  0  0  0  0  0  0  0  0
   -8.2760   -5.6771    0.0000 C   0  0  0  0  0  0  0  0  0  0  0  0
   -7.7625   -4.2668    0.0000 C   0  0  0  0  0  0  0  0  0  0  0  0
   -6.2846   -4.0054    0.0000 C   0  0  0  0  0  0  0  0  0  0  0  0
   -5.3202   -5.1543    0.0000 C   0  0  0  0  0  0  0  0  0  0  0  0
   -5.8336   -6.5645    0.0000 C   0  0  0  0  0  0  0  0  0  0  0  0
   -3.4110   -6.9915    0.0000 C   0  0  0  0  0  0  0  0  0  0  0  0
   -5.8327   -9.5045    0.0000 C   0  0  0  0  0  0  0  0  0  0  0  0
   -3.7391   -3.2696    0.0000 O   0  0  0  0  0  0  0  0  0  0  0  0
   -4.2523   -1.8602    0.0000 C   0  0  0  0  0  0  0  0  0  0  0  0
   -2.7856   -1.5979    0.0000 C   0  0  0  0  0  0  0  0  0  0  0  0
   -2.2698   -0.1647    0.0000 C   0  0  0  0  0  0  0  0  0  0  0  0
   -3.2467    0.9812    0.0000 C   0  0  0  0  0  0  0  0  0  0  0  0
   -4.7135    0.7189    0.0000 C   0  0  0  0  0  0  0  0  0  0  0  0
   -6.1913    0.9755    0.0000 C   0  0  0  0  0  0  0  0  0  0  0  0
   -7.0388    3.2850    0.0000 O   0  0  0  0  0  0  0  0  0  0  0  0
   -8.5167    3.5416    0.0000 C   0  0  0  0  0  0  0  0  0  0  0  0
   -8.0140    4.9442    0.0000 C   0  0  0  0  0  0  0  0  0  0  0  0
   -9.0001    6.1050    0.0000 C   0  0  0  0  0  0  0  0  0  0  0  0
  -10.4803    5.8282    0.0000 C   0  0  0  0  0  0  0  0  0  0  0  0
  -10.9830    4.4255    0.0000 C   0  0  0  0  0  0  0  0  0  0  0  0
  -11.9413    3.2715    0.0000 C   0  0  0  0  0  0  0  0  0  0  0  0
  -13.4198    3.5244    0.0000 O   0  0  0  0  0  0  0  0  0  0  0  0
  -10.0123    3.2809    0.0000 O   0  0  0  0  0  0  0  0  0  0  0  0
  -11.9593    6.0787    0.0000 O   0  0  0  0  0  0  0  0  0  0  0  0
   -9.5258    7.5099    0.0000 O   0  0  0  0  0  0  0  0  0  0  0  0
   -7.0564    6.0988    0.0000 O   0  0  0  0  0  0  0  0  0  0  0  0
   -5.2229   -0.6928    0.0000 O   0  0  0  0  0  0  0  0  0  0  0  0
   -3.7657    2.3886    0.0000 O   0  0  0  0  0  0  0  0  0  0  0  0
   -1.3130    0.9905    0.0000 O   0  0  0  0  0  0  0  0  0  0  0  0
   -1.3075   -1.8536    0.0000 O   0  0  0  0  0  0  0  0  0  0  0  0
   -9.7538   -5.9385    0.0000 C   0  0  0  0  0  0  0  0  0  0  0  0
   -8.7645   -4.2234    0.0000 C   0  0  0  0  0  0  0  0  0  0  0  0
  -10.7183   -4.7896    0.0000 C   0  0  0  0  0  0  0  0  0  0  0  0
  -12.1962   -5.0510    0.0000 C   0  0  0  0  0  0  0  0  0  0  0  0
  -12.7096   -6.4613    0.0000 C   0  0  0  0  0  0  0  0  0  0  0  0
  -14.8276   -4.4222    0.0000 C   0  0  0  0  0  0  0  0  0  0  0  0
  1  2  1  0
  2  3  1  0
  3  4  2  0
  2  5  1  0
  5  6  1  0
  6  7  1  0
  7  8  1  0
  8  9  1  1
  8 10  1  0
 10 11  1  0
 11 12  1  0
 12 13  2  0
 13 14  1  0
 14 15  1  0
 15 16  1  0
 16 17  1  0
 17 18  1  0
 13 18  1  0
 18 19  1  0
 18 20  1  0
 17 21  1  0
 21 22  1  0
 22 23  1  0
 23 24  1  0
 24 25  1  0
 25 26  1  0
 26 27  1  0
 27 28  1  0
 28 29  1  0
 29 30  1  0
 30 31  1  0
 31 32  1  0
 32 33  1  0
 33 34  1  0
 34 35  1  0
 33 36  1  0
 29 36  1  0
 32 37  1  0
 31 38  1  0
 30 39  1  0
 26 40  1  0
 22 40  1  0
 25 41  1  0
 24 42  1  0
 23 43  1  0
 14 44  1  0
 10 44  1  0
 44 45  1  1
 44 46  1  0
 46 47  1  0
 47 48  1  0
  5 48  1  0
  8 48  1  0
 48 49  1  6
M  END
>  <cdk:Title>  (100) 
3beta-[(6-O-beta-D-Glucopyranosyl-beta-D-glucopyranosyl)oxy]-23_24_25_26_27-pentanorcucurbita-5-ene-22-al

>  <1A2>  (100) 
N

>  <2A6>  (100) 
N

>  <2B6>  (100) 
N

>  <2C8>  (100) 
N

>  <2C9>  (100) 
N

>  <2C19>  (100) 
N

>  <2D6>  (100) 
N

>  <2E1>  (100) 
N

>  <3A4>  (100) 
N

>  <Citation>  (100) 
Nucleic Acids Res. 2018. Jan 4;46(D1):D608-17. PMID:29140435
Nucleic Acids Res. 2018 Jan 4;46(D1):D1074-D1082. PMID:29126136
Nucleic Acids Res., 45:D380-388 (2017).  PMID:27924025
Nucleic Acids Res. 2016 Jan 4;44(D1):D1202-13. PMID:26400175

>  <ROMol>  (100) 
<rdkit.Chem.rdchem.Mol object at 0x7c29060ee960>

>  <Drug_like>  (100) 
True

$$$$
3'-Methoxyfukiic acid
     RDKit          2D

 20 20  0  0  0  0  0  0  0  0999 V2000
    4.8989    3.0462    0.0000 O   0  0  0  0  0  0  0  0  0  0  0  0
    4.8989    1.5462    0.0000 C   0  0  0  0  0  0  0  0  0  0  0  0
    3.5999    0.7962    0.0000 C   0  0  0  0  0  0  0  0  0  0  0  0
    2.6357   -0.3529    0.0000 O   0  0  0  0  0  0  0  0  0  0  0  0
    1.4695    2.0262    0.0000 C   0  0  0  0  0  0  0  0  0  0  0  0
    0.1704    1.2762    0.0000 C   0  0  0  0  0  0  0  0  0  0  0  0
   -1.5443    2.2662    0.0000 C   0  0  0  0  0  0  0  0  0  0  0  0
   -1.5438    3.7670    0.0000 C   0  0  0  0  0  0  0  0  0  0  0  0
   -2.8429    4.5170    0.0000 C   0  0  0  0  0  0  0  0  0  0  0  0
   -4.1424    3.7662    0.0000 C   0  0  0  0  0  0  0  0  0  0  0  0
   -5.4414    4.5162    0.0000 O   0  0  0  0  0  0  0  0  0  0  0  0
   -4.1429    2.2653    0.0000 C   0  0  0  0  0  0  0  0  0  0  0  0
   -2.8438    1.5153    0.0000 C   0  0  0  0  0  0  0  0  0  0  0  0
   -5.4420    1.5155    0.0000 O   0  0  0  0  0  0  0  0  0  0  0  0
   -6.7409    2.2657    0.0000 C   0  0  0  0  0  0  0  0  0  0  0  0
    2.4336    3.1752    0.0000 O   0  0  0  0  0  0  0  0  0  0  0  0
    0.5053    3.1752    0.0000 C   0  0  0  0  0  0  0  0  0  0  0  0
   -0.9719    2.9148    0.0000 O   0  0  0  0  0  0  0  0  0  0  0  0
    1.0183    4.5848    0.0000 O   0  0  0  0  0  0  0  0  0  0  0  0
    6.1980    0.7962    0.0000 O   0  0  0  0  0  0  0  0  0  0  0  0
  1  2  2  0
  2  3  1  0
  3  4  1  0
  3  5  1  0
  5  6  1  0
  6  7  1  0
  7  8  2  0
  8  9  1  0
  9 10  2  0
 10 11  1  0
 10 12  1  0
 12 13  2  0
  7 13  1  0
 12 14  1  0
 14 15  1  0
  5 16  1  6
  5 17  1  0
 17 18  2  0
 17 19  1  0
  2 20  1  0
M  END
>  <cdk:Title>  (101) 
3'-Methoxyfukiic acid

>  <1A2>  (101) 
N

>  <2A6>  (101) 
N

>  <2B6>  (101) 
N

>  <2C8>  (101) 
N

>  <2C9>  (101) 
N

>  <2C19>  (101) 
N

>  <2D6>  (101) 
N

>  <2E1>  (101) 
N

>  <3A4>  (101) 
N

>  <Citation>  (101) 
Nucleic Acids Res. 2018. Jan 4;46(D1):D608-17. PMID:29140435
Nucleic Acids Res. 2018 Jan 4;46(D1):D1074-D1082. PMID:29126136
Nucleic Acids Res., 45:D380-388 (2017).  PMID:27924025
Nucleic Acids Res. 2016 Jan 4;44(D1):D1202-13. PMID:26400175

>  <ROMol>  (101) 
<rdkit.Chem.rdchem.Mol object at 0x7c29060ee9d0>

>  <Drug_like>  (101) 
True

$$$$
UNII-so7S6dS7TQ
     RDKit          2D

 35 39  0  0  0  0  0  0  0  0999 V2000
    0.1795   -3.0361    0.0000 C   0  0  0  0  0  0  0  0  0  0  0  0
   -1.1196   -2.2861    0.0000 C   0  0  0  0  0  0  0  0  0  0  0  0
   -2.4186   -3.0361    0.0000 C   0  0  0  0  0  0  0  0  0  0  0  0
   -2.7305   -4.5033    0.0000 C   0  0  0  0  0  0  0  0  0  0  0  0
   -4.2223   -4.6601    0.0000 O   0  0  0  0  0  0  0  0  0  0  0  0
   -4.8324   -3.2898    0.0000 C   0  0  0  0  0  0  0  0  0  0  0  0
   -3.7177   -2.2861    0.0000 C   0  0  0  0  0  0  0  0  0  0  0  0
   -3.7177   -0.7861    0.0000 C   0  0  0  0  0  0  0  0  0  0  0  0
   -2.4186   -0.0361    0.0000 C   0  0  0  0  0  0  0  0  0  0  0  0
   -2.4186    1.4639    0.0000 C   0  0  0  0  0  0  0  0  0  0  0  0
   -1.1196    2.2139    0.0000 C   0  0  0  0  0  0  0  0  0  0  0  0
   -1.1196    3.7139    0.0000 C   0  0  0  0  0  0  0  0  0  0  0  0
   -4.0514    3.4942    0.0000 C   0  0  0  0  0  0  0  0  0  0  0  0
   -2.5159    4.2619    0.0000 C   0  0  0  0  0  0  0  0  0  0  0  0
   -2.9580    5.6953    0.0000 C   0  0  0  0  0  0  0  0  0  0  0  0
   -2.1130    6.9346    0.0000 C   0  0  0  0  0  0  0  0  0  0  0  0
   -2.8630    8.2337    0.0000 O   0  0  0  0  0  0  0  0  0  0  0  0
   -0.6172    7.0467    0.0000 O   0  0  0  0  0  0  0  0  0  0  0  0
    0.4030    5.9472    0.0000 C   0  0  0  0  0  0  0  0  0  0  0  0
    1.7993    5.3992    0.0000 C   0  0  0  0  0  0  0  0  0  0  0  0
    1.5184    7.5831    0.0000 C   0  0  0  0  0  0  0  0  0  0  0  0
    0.1795    4.4639    0.0000 C   0  0  0  0  0  0  0  0  0  0  0  0
    1.4785    3.7139    0.0000 C   0  0  0  0  0  0  0  0  0  0  0  0
    1.4785    2.2139    0.0000 C   0  0  0  0  0  0  0  0  0  0  0  0
    0.1795    1.4639    0.0000 C   0  0  0  0  0  0  0  0  0  0  0  0
    2.7256   -0.0061    0.0000 C   0  0  0  0  0  0  0  0  0  0  0  0
    0.1795   -0.0361    0.0000 O   0  0  0  0  0  0  0  0  0  0  0  0
   -1.1196   -0.7861    0.0000 C   0  0  0  0  0  0  0  0  0  0  0  0
    3.4284    3.3701    0.0000 O   0  0  0  0  0  0  0  0  0  0  0  0
    4.3926    4.5192    0.0000 C   0  0  0  0  0  0  0  0  0  0  0  0
    5.8698    4.2587    0.0000 C   0  0  0  0  0  0  0  0  0  0  0  0
    3.8796    5.9287    0.0000 O   0  0  0  0  0  0  0  0  0  0  0  0
   -5.0167   -0.0361    0.0000 O   0  0  0  0  0  0  0  0  0  0  0  0
   -6.3157   -0.7861    0.0000 C   0  0  0  0  0  0  0  0  0  0  0  0
   -6.2996   -2.9779    0.0000 O   0  0  0  0  0  0  0  0  0  0  0  0
  1  2  1  0
  2  3  2  0
  3  4  1  0
  4  5  1  0
  5  6  1  0
  6  7  1  0
  3  7  1  0
  7  8  2  0
  8  9  1  0
  9 10  1  0
 10 11  1  0
 11 12  1  0
 12 13  1  6
 12 14  1  0
 14 15  1  0
 15 16  1  0
 16 17  2  0
 16 18  1  0
 18 19  1  0
 19 20  1  0
 19 21  1  0
 19 22  1  0
 12 22  1  0
 22 23  1  0
 23 24  1  0
 24 25  1  0
 11 25  1  0
 25 26  1  1
 25 27  1  0
 27 28  1  0
  2 28  1  0
  9 28  2  0
 23 29  1  0
 29 30  1  0
 30 31  1  0
 30 32  2  0
  8 33  1  0
 33 34  1  0
  6 35  2  0
M  END
>  <cdk:Title>  (102) 
UNII-so7S6dS7TQ

>  <1A2>  (102) 
N

>  <2A6>  (102) 
N

>  <2B6>  (102) 
N

>  <2C8>  (102) 
N

>  <2C9>  (102) 
N

>  <2C19>  (102) 
N

>  <2D6>  (102) 
N

>  <2E1>  (102) 
N

>  <3A4>  (102) 
N

>  <Citation>  (102) 
Nucleic Acids Res. 2018. Jan 4;46(D1):D608-17. PMID:29140435
Nucleic Acids Res. 2018 Jan 4;46(D1):D1074-D1082. PMID:29126136
Nucleic Acids Res., 45:D380-388 (2017).  PMID:27924025
Nucleic Acids Res. 2016 Jan 4;44(D1):D1202-13. PMID:26400175

>  <ROMol>  (102) 
<rdkit.Chem.rdchem.Mol object at 0x7c29060eeb20>

>  <Drug_like>  (102) 
True

$$$$
Limonin
     RDKit          2D

 34 40  0  0  0  0  0  0  0  0999 V2000
   -4.6715   -0.6399    0.0000 C   0  0  0  0  0  0  0  0  0  0  0  0
   -4.6715   -2.1399    0.0000 C   0  0  0  0  0  0  0  0  0  0  0  0
   -3.3725   -2.8899    0.0000 C   0  0  0  0  0  0  0  0  0  0  0  0
   -2.0734   -2.1399    0.0000 C   0  0  0  0  0  0  0  0  0  0  0  0
   -2.0734   -0.6399    0.0000 C   0  0  0  0  0  0  0  0  0  0  0  0
   -3.3725    0.1101    0.0000 C   0  0  0  0  0  0  0  0  0  0  0  0
   -3.3725    1.6101    0.0000 C   0  0  0  0  0  0  0  0  0  0  0  0
   -2.0734    2.3601    0.0000 C   0  0  0  0  0  0  0  0  0  0  0  0
   -0.7744    1.6101    0.0000 C   0  0  0  0  0  0  0  0  0  0  0  0
   -0.7744    0.1101    0.0000 C   0  0  0  0  0  0  0  0  0  0  0  0
    0.5247   -0.6399    0.0000 C   0  0  0  0  0  0  0  0  0  0  0  0
    1.8237    0.1101    0.0000 C   0  0  0  0  0  0  0  0  0  0  0  0
    1.8237    1.6101    0.0000 O   0  0  0  0  0  0  0  0  0  0  0  0
    0.5247    2.3601    0.0000 C   0  0  0  0  0  0  0  0  0  0  0  0
    2.4144    4.6123    0.0000 C   0  0  0  0  0  0  0  0  0  0  0  0
    2.0432    6.0645    0.0000 C   0  0  0  0  0  0  0  0  0  0  0  0
    3.3163    6.8505    0.0000 O   0  0  0  0  0  0  0  0  0  0  0  0
    4.4763    5.8800    0.0000 C   0  0  0  0  0  0  0  0  0  0  0  0
    3.8902    4.5003    0.0000 C   0  0  0  0  0  0  0  0  0  0  0  0
    3.1227   -0.6399    0.0000 O   0  0  0  0  0  0  0  0  0  0  0  0
   -0.7744   -1.3899    0.0000 O   0  0  0  0  0  0  0  0  0  0  0  0
   -0.7744    4.5501    0.0000 C   0  0  0  0  0  0  0  0  0  0  0  0
   -0.5567   -1.9126    0.0000 C   0  0  0  0  0  0  0  0  0  0  0  0
   -0.7744   -2.8899    0.0000 O   0  0  0  0  0  0  0  0  0  0  0  0
   -6.0981   -2.6034    0.0000 C   0  0  0  0  0  0  0  0  0  0  0  0
   -6.9798   -1.3899    0.0000 O   0  0  0  0  0  0  0  0  0  0  0  0
   -6.0981   -0.1764    0.0000 C   0  0  0  0  0  0  0  0  0  0  0  0
   -6.4100    1.2909    0.0000 C   0  0  0  0  0  0  0  0  0  0  0  0
   -5.2952    2.2946    0.0000 C   0  0  0  0  0  0  0  0  0  0  0  0
   -3.8686    1.8310    0.0000 O   0  0  0  0  0  0  0  0  0  0  0  0
   -3.5568    0.3638    0.0000 C   0  0  0  0  0  0  0  0  0  0  0  0
   -5.6071    3.7618    0.0000 O   0  0  0  0  0  0  0  0  0  0  0  0
   -7.3971   -3.3534    0.0000 C   0  0  0  0  0  0  0  0  0  0  0  0
   -5.0975   -4.8507    0.0000 C   0  0  0  0  0  0  0  0  0  0  0  0
  1  2  1  0
  2  3  1  0
  3  4  1  0
  4  5  1  0
  5  6  1  0
  1  6  1  0
  6  7  1  0
  7  8  1  0
  8  9  1  0
  9 10  1  0
  5 10  1  0
 10 11  1  0
 11 12  1  0
 12 13  1  0
 13 14  1  0
  9 14  1  0
 14 15  1  0
 15 16  2  0
 16 17  1  0
 17 18  1  0
 18 19  2  0
 15 19  1  0
 12 20  2  0
 11 21  1  0
 10 21  1  6
  9 22  1  1
  5 23  1  1
  4 24  2  0
  2 25  1  0
 25 26  1  0
 26 27  1  0
  1 27  1  0
 27 28  1  0
 28 29  1  0
 29 30  1  0
 30 31  1  0
  1 31  1  1
 29 32  2  0
 25 33  1  0
 25 34  1  0
M  END
>  <cdk:Title>  (103) 
Limonin

>  <1A2>  (103) 
N

>  <2A6>  (103) 
N

>  <2B6>  (103) 
N

>  <2C8>  (103) 
N

>  <2C9>  (103) 
N

>  <2C19>  (103) 
N

>  <2D6>  (103) 
N

>  <2E1>  (103) 
N

>  <3A4>  (103) 
N

>  <Citation>  (103) 
Nucleic Acids Res. 2018. Jan 4;46(D1):D608-17. PMID:29140435
Nucleic Acids Res. 2018 Jan 4;46(D1):D1074-D1082. PMID:29126136
Nucleic Acids Res., 45:D380-388 (2017).  PMID:27924025
Nucleic Acids Res. 2016 Jan 4;44(D1):D1202-13. PMID:26400175

>  <ROMol>  (103) 
<rdkit.Chem.rdchem.Mol object at 0x7c29060eec70>

>  <Drug_like>  (103) 
True

$$$$
AC1NSXCF
     RDKit          2D

 42 46  0  0  0  0  0  0  0  0999 V2000
   -4.9329    3.9915    0.0000 C   0  0  0  0  0  0  0  0  0  0  0  0
   -4.9329    2.4915    0.0000 C   0  0  0  0  0  0  0  0  0  0  0  0
   -6.2229    1.7415    0.0000 C   0  0  0  0  0  0  0  0  0  0  0  0
   -7.5229    2.4915    0.0000 C   0  0  0  0  0  0  0  0  0  0  0  0
   -7.5229    3.9915    0.0000 C   0  0  0  0  0  0  0  0  0  0  0  0
   -7.0124    6.8868    0.0000 C   0  0  0  0  0  0  0  0  0  0  0  0
   -6.2229    4.7415    0.0000 C   0  0  0  0  0  0  0  0  0  0  0  0
   -6.2229    6.2415    0.0000 C   0  0  0  0  0  0  0  0  0  0  0  0
   -4.9329    6.9915    0.0000 C   0  0  0  0  0  0  0  0  0  0  0  0
   -3.6329    6.2415    0.0000 C   0  0  0  0  0  0  0  0  0  0  0  0
   -2.3329    6.9915    0.0000 C   0  0  0  0  0  0  0  0  0  0  0  0
   -2.3329    8.4915    0.0000 C   0  0  0  0  0  0  0  0  0  0  0  0
   -1.0329    9.2415    0.0000 C   0  0  0  0  0  0  0  0  0  0  0  0
    0.8566   11.4939    0.0000 C   0  0  0  0  0  0  0  0  0  0  0  0
   -2.9225   11.4939    0.0000 C   0  0  0  0  0  0  0  0  0  0  0  0
    0.2671    8.4915    0.0000 C   0  0  0  0  0  0  0  0  0  0  0  0
    1.7443    8.2312    0.0000 O   0  0  0  0  0  0  0  0  0  0  0  0
    0.2671    6.9915    0.0000 C   0  0  0  0  0  0  0  0  0  0  0  0
   -1.0329    6.2415    0.0000 C   0  0  0  0  0  0  0  0  0  0  0  0
   -1.0329    4.7415    0.0000 C   0  0  0  0  0  0  0  0  0  0  0  0
   -2.3329    3.9915    0.0000 C   0  0  0  0  0  0  0  0  0  0  0  0
   -3.6329    4.7415    0.0000 C   0  0  0  0  0  0  0  0  0  0  0  0
   -3.9768    2.7916    0.0000 C   0  0  0  0  0  0  0  0  0  0  0  0
   -0.0280    1.9786    0.0000 O   0  0  0  0  0  0  0  0  0  0  0  0
    1.5129    4.7711    0.0000 C   0  0  0  0  0  0  0  0  0  0  0  0
    2.8121    5.5209    0.0000 O   0  0  0  0  0  0  0  0  0  0  0  0
    1.2720    4.2286    0.0000 O   0  0  0  0  0  0  0  0  0  0  0  0
    4.1672    3.7174    0.0000 C   0  0  0  0  0  0  0  0  0  0  0  0
    5.0081    1.4056    0.0000 C   0  0  0  0  0  0  0  0  0  0  0  0
    6.4853    1.1448    0.0000 C   0  0  0  0  0  0  0  0  0  0  0  0
    7.4497    2.2937    0.0000 C   0  0  0  0  0  0  0  0  0  0  0  0
    4.0437    0.2567    0.0000 C   0  0  0  0  0  0  0  0  0  0  0  0
    5.1317    4.8663    0.0000 O   0  0  0  0  0  0  0  0  0  0  0  0
   -8.8229    4.7415    0.0000 C   0  0  0  0  0  0  0  0  0  0  0  0
  -10.1229    3.9915    0.0000 C   0  0  0  0  0  0  0  0  0  0  0  0
  -10.1229    2.4915    0.0000 C   0  0  0  0  0  0  0  0  0  0  0  0
   -8.8229    1.7415    0.0000 C   0  0  0  0  0  0  0  0  0  0  0  0
  -10.7125   -0.5109    0.0000 C   0  0  0  0  0  0  0  0  0  0  0  0
   -6.9334   -0.5109    0.0000 C   0  0  0  0  0  0  0  0  0  0  0  0
   -5.4562   -0.2506    0.0000 O   0  0  0  0  0  0  0  0  0  0  0  0
  -11.6002    2.7518    0.0000 O   0  0  0  0  0  0  0  0  0  0  0  0
   -2.3871    2.5211    0.0000 C   0  0  0  0  0  0  0  0  0  0  0  0
  1  2  1  0
  2  3  1  0
  3  4  1  0
  4  5  1  0
  5  6  1  6
  5  7  1  0
  1  7  1  0
  7  8  1  0
  8  9  1  0
  9 10  2  0
 10 11  1  0
 11 12  1  0
 12 13  1  0
 13 14  1  0
 13 15  1  0
 13 16  1  0
 16 17  1  0
 16 18  1  0
 18 19  1  0
 11 19  1  0
 19 20  1  0
 20 21  1  0
 21 22  1  0
  1 22  1  0
 10 22  1  0
 22 23  1  6
 20 24  1  0
 19 25  1  1
 25 26  1  0
 18 27  1  0
 27 28  1  0
 28 29  1  0
 29 30  2  0
 30 31  1  0
 29 32  1  0
 28 33  2  0
  5 34  1  0
 34 35  1  0
 35 36  1  0
 36 37  1  0
  4 37  1  0
 37 38  1  1
 37 39  1  0
 39 40  1  0
 36 41  1  0
  1 42  1  6
M  END
>  <cdk:Title>  (104) 
AC1NSXCF

>  <1A2>  (104) 
N

>  <2A6>  (104) 
N

>  <2B6>  (104) 
N

>  <2C8>  (104) 
N

>  <2C9>  (104) 
N

>  <2C19>  (104) 
N

>  <2D6>  (104) 
N

>  <2E1>  (104) 
N

>  <3A4>  (104) 
N

>  <Citation>  (104) 
Nucleic Acids Res. 2018. Jan 4;46(D1):D608-17. PMID:29140435
Nucleic Acids Res. 2018 Jan 4;46(D1):D1074-D1082. PMID:29126136
Nucleic Acids Res., 45:D380-388 (2017).  PMID:27924025
Nucleic Acids Res. 2016 Jan 4;44(D1):D1202-13. PMID:26400175

>  <ROMol>  (104) 
<rdkit.Chem.rdchem.Mol object at 0x7c29060eeea0>

>  <Drug_like>  (104) 
True

$$$$
Cinncassiol a
     RDKit          2D

 27 30  0  0  0  0  0  0  0  0999 V2000
   -5.6319   -0.7983    0.0000 C   0  0  0  0  0  0  0  0  0  0  0  0
   -5.3747   -3.2448    0.0000 C   0  0  0  0  0  0  0  0  0  0  0  0
   -4.0757   -3.9948    0.0000 C   0  0  0  0  0  0  0  0  0  0  0  0
   -3.7638   -2.5276    0.0000 O   0  0  0  0  0  0  0  0  0  0  0  0
   -2.5839   -3.8380    0.0000 C   0  0  0  0  0  0  0  0  0  0  0  0
   -4.0757   -3.6812    0.0000 O   0  0  0  0  0  0  0  0  0  0  0  0
   -4.9574   -4.8948    0.0000 C   0  0  0  0  0  0  0  0  0  0  0  0
   -4.3473   -6.2651    0.0000 C   0  0  0  0  0  0  0  0  0  0  0  0
   -2.8555   -6.4219    0.0000 C   0  0  0  0  0  0  0  0  0  0  0  0
   -4.3876   -5.4620    0.0000 C   0  0  0  0  0  0  0  0  0  0  0  0
   -5.8793   -5.6188    0.0000 C   0  0  0  0  0  0  0  0  0  0  0  0
   -6.4895   -4.2485    0.0000 C   0  0  0  0  0  0  0  0  0  0  0  0
   -7.9567   -3.9366    0.0000 C   0  0  0  0  0  0  0  0  0  0  0  0
   -9.4421   -4.1454    0.0000 C   0  0  0  0  0  0  0  0  0  0  0  0
   -8.4202   -2.5101    0.0000 C   0  0  0  0  0  0  0  0  0  0  0  0
   -9.8874   -2.1982    0.0000 O   0  0  0  0  0  0  0  0  0  0  0  0
   -4.8341   -7.3910    0.0000 O   0  0  0  0  0  0  0  0  0  0  0  0
   -1.9738   -5.2083    0.0000 C   0  0  0  0  0  0  0  0  0  0  0  0
   -0.4820   -5.3651    0.0000 C   0  0  0  0  0  0  0  0  0  0  0  0
    0.3997   -4.1516    0.0000 C   0  0  0  0  0  0  0  0  0  0  0  0
   -0.2105   -2.7813    0.0000 C   0  0  0  0  0  0  0  0  0  0  0  0
   -1.7022   -2.6245    0.0000 C   0  0  0  0  0  0  0  0  0  0  0  0
   -3.0504   -1.9669    0.0000 O   0  0  0  0  0  0  0  0  0  0  0  0
   -0.3486   -0.8061    0.0000 C   0  0  0  0  0  0  0  0  0  0  0  0
   -0.9732   -7.4557    0.0000 O   0  0  0  0  0  0  0  0  0  0  0  0
   -2.0501   -8.2307    0.0000 C   0  0  0  0  0  0  0  0  0  0  0  0
   -6.4492   -4.7380    0.0000 O   0  0  0  0  0  0  0  0  0  0  0  0
  1  2  1  0
  2  3  1  0
  3  4  1  1
  3  5  1  0
  5  6  1  1
  6  7  1  0
  7  8  1  0
  8  9  1  0
  9 10  1  0
  3 10  1  0
 10 11  1  0
 11 12  1  0
  2 12  2  0
 12 13  1  0
 13 14  1  0
 13 15  1  0
 15 16  1  0
 10 17  1  1
  9 18  1  0
  5 18  1  0
 18 19  1  0
 19 20  1  0
 20 21  1  0
 21 22  1  0
  5 22  1  0
 22 23  1  0
 21 24  1  0
 18 25  1  6
  9 26  1  6
  7 27  2  0
M  END
>  <cdk:Title>  (105) 
Cinncassiol a

>  <1A2>  (105) 
N

>  <2A6>  (105) 
N

>  <2B6>  (105) 
N

>  <2C8>  (105) 
N

>  <2C9>  (105) 
N

>  <2C19>  (105) 
N

>  <2D6>  (105) 
N

>  <2E1>  (105) 
N

>  <3A4>  (105) 
N

>  <Citation>  (105) 
Nucleic Acids Res. 2018. Jan 4;46(D1):D608-17. PMID:29140435
Nucleic Acids Res. 2018 Jan 4;46(D1):D1074-D1082. PMID:29126136
Nucleic Acids Res., 45:D380-388 (2017).  PMID:27924025
Nucleic Acids Res. 2016 Jan 4;44(D1):D1202-13. PMID:26400175

>  <ROMol>  (105) 
<rdkit.Chem.rdchem.Mol object at 0x7c29060ef0d0>

>  <Drug_like>  (105) 
True

$$$$
Cynaratriol
     RDKit          2D

 20 22  0  0  0  0  0  0  0  0999 V2000
    1.0055    4.0108    0.0000 C   0  0  0  0  0  0  0  0  0  0  0  0
    1.0816    2.5127    0.0000 C   0  0  0  0  0  0  0  0  0  0  0  0
    2.4616    1.9327    0.0000 C   0  0  0  0  0  0  0  0  0  0  0  0
    2.8616    0.4827    0.0000 C   0  0  0  0  0  0  0  0  0  0  0  0
    1.9916   -0.7273    0.0000 C   0  0  0  0  0  0  0  0  0  0  0  0
    0.4816   -0.8073    0.0000 C   0  0  0  0  0  0  0  0  0  0  0  0
   -0.5084    0.3227    0.0000 C   0  0  0  0  0  0  0  0  0  0  0  0
   -1.9884    0.1227    0.0000 C   0  0  0  0  0  0  0  0  0  0  0  0
   -3.8512   -0.5485    0.0000 C   0  0  0  0  0  0  0  0  0  0  0  0
   -2.6384    1.4627    0.0000 C   0  0  0  0  0  0  0  0  0  0  0  0
   -1.5684    2.5027    0.0000 C   0  0  0  0  0  0  0  0  0  0  0  0
   -0.2384    1.7927    0.0000 C   0  0  0  0  0  0  0  0  0  0  0  0
   -3.5636    2.6434    0.0000 O   0  0  0  0  0  0  0  0  0  0  0  0
    0.0816   -2.2573    0.0000 O   0  0  0  0  0  0  0  0  0  0  0  0
    1.3516   -3.0873    0.0000 C   0  0  0  0  0  0  0  0  0  0  0  0
    2.5116   -2.1373    0.0000 C   0  0  0  0  0  0  0  0  0  0  0  0
    3.3276   -3.3959    0.0000 C   0  0  0  0  0  0  0  0  0  0  0  0
    4.8256   -3.3184    0.0000 O   0  0  0  0  0  0  0  0  0  0  0  0
    3.8528   -1.4656    0.0000 O   0  0  0  0  0  0  0  0  0  0  0  0
    1.4320   -4.5851    0.0000 O   0  0  0  0  0  0  0  0  0  0  0  0
  1  2  2  0
  2  3  1  0
  3  4  1  0
  4  5  1  0
  5  6  1  0
  6  7  1  0
  7  8  1  0
  8  9  1  0
  8 10  1  0
 10 11  1  0
 11 12  1  0
  2 12  1  0
  7 12  1  0
 10 13  1  0
  6 14  1  0
 14 15  1  0
 15 16  1  0
  5 16  1  0
 16 17  1  0
 17 18  1  0
 16 19  1  6
 15 20  2  0
M  END
>  <cdk:Title>  (106) 
Cynaratriol

>  <1A2>  (106) 
N

>  <2A6>  (106) 
N

>  <2B6>  (106) 
N

>  <2C8>  (106) 
N

>  <2C9>  (106) 
N

>  <2C19>  (106) 
N

>  <2D6>  (106) 
N

>  <2E1>  (106) 
N

>  <3A4>  (106) 
N

>  <Citation>  (106) 
Nucleic Acids Res. 2018. Jan 4;46(D1):D608-17. PMID:29140435
Nucleic Acids Res. 2018 Jan 4;46(D1):D1074-D1082. PMID:29126136
Nucleic Acids Res., 45:D380-388 (2017).  PMID:27924025
Nucleic Acids Res. 2016 Jan 4;44(D1):D1202-13. PMID:26400175

>  <ROMol>  (106) 
<rdkit.Chem.rdchem.Mol object at 0x7c29060ef140>

>  <Drug_like>  (106) 
True

$$$$
7050-24-0
     RDKit          2D

 26 29  0  0  0  0  0  0  0  0999 V2000
    0.2204   -2.2409    0.0000 C   0  0  0  0  0  0  0  0  0  0  0  0
   -0.1234   -4.1908    0.0000 C   0  0  0  0  0  0  0  0  0  0  0  0
   -1.4234   -3.4408    0.0000 C   0  0  0  0  0  0  0  0  0  0  0  0
   -2.7234   -4.1908    0.0000 C   0  0  0  0  0  0  0  0  0  0  0  0
   -2.7234   -5.6908    0.0000 C   0  0  0  0  0  0  0  0  0  0  0  0
   -1.4234   -6.4408    0.0000 C   0  0  0  0  0  0  0  0  0  0  0  0
   -0.1234   -5.6908    0.0000 C   0  0  0  0  0  0  0  0  0  0  0  0
    1.1766   -6.4408    0.0000 C   0  0  0  0  0  0  0  0  0  0  0  0
    2.4766   -5.6908    0.0000 C   0  0  0  0  0  0  0  0  0  0  0  0
    2.4766   -4.1908    0.0000 C   0  0  0  0  0  0  0  0  0  0  0  0
    1.1766   -3.4408    0.0000 C   0  0  0  0  0  0  0  0  0  0  0  0
    1.1766   -1.9408    0.0000 C   0  0  0  0  0  0  0  0  0  0  0  0
   -0.1223   -1.1906    0.0000 O   0  0  0  0  0  0  0  0  0  0  0  0
    2.4766   -1.1908    0.0000 C   0  0  0  0  0  0  0  0  0  0  0  0
    3.7766   -1.9408    0.0000 C   0  0  0  0  0  0  0  0  0  0  0  0
    3.7766   -3.4408    0.0000 C   0  0  0  0  0  0  0  0  0  0  0  0
    5.1966   -3.9108    0.0000 C   0  0  0  0  0  0  0  0  0  0  0  0
    6.0866   -2.6908    0.0000 C   0  0  0  0  0  0  0  0  0  0  0  0
    5.1966   -1.4808    0.0000 C   0  0  0  0  0  0  0  0  0  0  0  0
    6.9078   -0.4847    0.0000 C   0  0  0  0  0  0  0  0  0  0  0  0
    6.9023    1.0153    0.0000 O   0  0  0  0  0  0  0  0  0  0  0  0
    8.2095   -1.2300    0.0000 C   0  0  0  0  0  0  0  0  0  0  0  0
    8.2149   -2.7299    0.0000 O   0  0  0  0  0  0  0  0  0  0  0  0
    4.0848    0.9830    0.0000 C   0  0  0  0  0  0  0  0  0  0  0  0
    5.4552    1.5927    0.0000 O   0  0  0  0  0  0  0  0  0  0  0  0
   -4.2006   -5.4305    0.0000 O   0  0  0  0  0  0  0  0  0  0  0  0
  2  1  1  1
  2  3  1  0
  3  4  1  0
  4  5  1  0
  5  6  1  0
  6  7  1  0
  2  7  1  0
  7  8  1  0
  8  9  1  0
  9 10  1  0
 10 11  1  0
  2 11  1  0
 11 12  1  0
 12 13  2  0
 12 14  1  0
 14 15  1  0
 15 16  1  0
 10 16  1  0
 16 17  1  0
 17 18  1  0
 18 19  1  0
 15 19  1  0
 19 20  1  0
 20 21  2  0
 20 22  1  0
 22 23  1  0
 15 24  1  1
 24 25  1  0
  5 26  1  0
M  END
>  <cdk:Title>  (107) 
7050-24-0

>  <1A2>  (107) 
N

>  <2A6>  (107) 
N

>  <2B6>  (107) 
N

>  <2C8>  (107) 
N

>  <2C9>  (107) 
N

>  <2C19>  (107) 
N

>  <2D6>  (107) 
N

>  <2E1>  (107) 
N

>  <3A4>  (107) 
N

>  <Citation>  (107) 
Nucleic Acids Res. 2018. Jan 4;46(D1):D608-17. PMID:29140435
Nucleic Acids Res. 2018 Jan 4;46(D1):D1074-D1082. PMID:29126136
Nucleic Acids Res., 45:D380-388 (2017).  PMID:27924025
Nucleic Acids Res. 2016 Jan 4;44(D1):D1202-13. PMID:26400175

>  <ROMol>  (107) 
<rdkit.Chem.rdchem.Mol object at 0x7c29060ef1b0>

>  <Drug_like>  (107) 
True

$$$$
Sagequinone methide a
     RDKit          2D

 24 27  0  0  0  0  0  0  0  0999 V2000
    4.4696    1.8126    0.0000 C   0  0  0  0  0  0  0  0  0  0  0  0
    4.4696    0.3126    0.0000 C   0  0  0  0  0  0  0  0  0  0  0  0
    3.1705   -0.4374    0.0000 C   0  0  0  0  0  0  0  0  0  0  0  0
    1.8715    0.3126    0.0000 C   0  0  0  0  0  0  0  0  0  0  0  0
    1.8715    1.8126    0.0000 C   0  0  0  0  0  0  0  0  0  0  0  0
    3.1705    2.5626    0.0000 C   0  0  0  0  0  0  0  0  0  0  0  0
    0.5725    2.5626    0.0000 C   0  0  0  0  0  0  0  0  0  0  0  0
   -0.7266    1.8126    0.0000 C   0  0  0  0  0  0  0  0  0  0  0  0
   -0.7266    0.3126    0.0000 C   0  0  0  0  0  0  0  0  0  0  0  0
    0.4449   -0.1510    0.0000 C   0  0  0  0  0  0  0  0  0  0  0  0
   -0.4368    1.0626    0.0000 O   0  0  0  0  0  0  0  0  0  0  0  0
    0.4449    2.2761    0.0000 C   0  0  0  0  0  0  0  0  0  0  0  0
   -0.0186    3.7027    0.0000 O   0  0  0  0  0  0  0  0  0  0  0  0
   -2.0256    2.5626    0.0000 C   0  0  0  0  0  0  0  0  0  0  0  0
   -2.0256    4.0626    0.0000 C   0  0  0  0  0  0  0  0  0  0  0  0
   -0.7266    4.8126    0.0000 C   0  0  0  0  0  0  0  0  0  0  0  0
    0.5725    4.0626    0.0000 C   0  0  0  0  0  0  0  0  0  0  0  0
    1.8715    4.8126    0.0000 O   0  0  0  0  0  0  0  0  0  0  0  0
   -0.7266    6.3126    0.0000 O   0  0  0  0  0  0  0  0  0  0  0  0
   -3.3247    4.8126    0.0000 C   0  0  0  0  0  0  0  0  0  0  0  0
   -3.3247    6.3126    0.0000 C   0  0  0  0  0  0  0  0  0  0  0  0
   -4.8019    5.0730    0.0000 C   0  0  0  0  0  0  0  0  0  0  0  0
    1.8978   -1.9542    0.0000 C   0  0  0  0  0  0  0  0  0  0  0  0
    4.7518   -2.3219    0.0000 C   0  0  0  0  0  0  0  0  0  0  0  0
  1  2  1  0
  2  3  1  0
  3  4  1  0
  4  5  1  0
  5  6  1  1
  1  6  1  0
  5  7  1  0
  7  8  1  0
  8  9  2  0
  9 10  1  0
  4 10  1  0
 10 11  1  0
 11 12  1  0
  5 12  1  0
 12 13  2  0
  8 14  1  0
 14 15  2  0
 15 16  1  0
 16 17  1  0
  7 17  2  0
 17 18  1  0
 16 19  2  0
 15 20  1  0
 20 21  1  0
 20 22  1  0
  3 23  1  0
  3 24  1  0
M  END
>  <cdk:Title>  (108) 
Sagequinone methide a

>  <1A2>  (108) 
N

>  <2A6>  (108) 
N

>  <2B6>  (108) 
N

>  <2C8>  (108) 
N

>  <2C9>  (108) 
N

>  <2C19>  (108) 
N

>  <2D6>  (108) 
N

>  <2E1>  (108) 
N

>  <3A4>  (108) 
N

>  <Citation>  (108) 
Nucleic Acids Res. 2018. Jan 4;46(D1):D608-17. PMID:29140435
Nucleic Acids Res. 2018 Jan 4;46(D1):D1074-D1082. PMID:29126136
Nucleic Acids Res., 45:D380-388 (2017).  PMID:27924025
Nucleic Acids Res. 2016 Jan 4;44(D1):D1202-13. PMID:26400175

>  <ROMol>  (108) 
<rdkit.Chem.rdchem.Mol object at 0x7c29060ef300>

>  <Drug_like>  (108) 
True

$$$$
Hypoglycine b
     RDKit          2D

 19 19  0  0  0  0  0  0  0  0999 V2000
   -8.7521    1.9750    0.0000 N   0  0  0  0  0  0  0  0  0  0  0  0
  -10.2294    1.7147    0.0000 C   0  0  0  0  0  0  0  0  0  0  0  0
  -11.1934    2.8639    0.0000 C   0  0  0  0  0  0  0  0  0  0  0  0
  -12.6707    2.6036    0.0000 C   0  0  0  0  0  0  0  0  0  0  0  0
  -14.1487    2.8640    0.0000 C   0  0  0  0  0  0  0  0  0  0  0  0
  -13.1834    4.0132    0.0000 C   0  0  0  0  0  0  0  0  0  0  0  0
  -12.9224    5.4904    0.0000 C   0  0  0  0  0  0  0  0  0  0  0  0
   -9.7165    0.3051    0.0000 C   0  0  0  0  0  0  0  0  0  0  0  0
   -8.2393    0.0445    0.0000 O   0  0  0  0  0  0  0  0  0  0  0  0
  -10.6808   -0.8438    0.0000 O   0  0  0  0  0  0  0  0  0  0  0  0
   -8.2390    3.3845    0.0000 C   0  0  0  0  0  0  0  0  0  0  0  0
   -9.2030    4.5337    0.0000 O   0  0  0  0  0  0  0  0  0  0  0  0
   -6.7617    3.6448    0.0000 C   0  0  0  0  0  0  0  0  0  0  0  0
   -6.2485    5.0543    0.0000 C   0  0  0  0  0  0  0  0  0  0  0  0
   -4.7713    5.3146    0.0000 C   0  0  0  0  0  0  0  0  0  0  0  0
   -5.4483    7.1753    0.0000 N   0  0  0  0  0  0  0  0  0  0  0  0
   -3.8072    4.1655    0.0000 C   0  0  0  0  0  0  0  0  0  0  0  0
   -4.3204    2.7560    0.0000 O   0  0  0  0  0  0  0  0  0  0  0  0
   -2.3300    4.4258    0.0000 O   0  0  0  0  0  0  0  0  0  0  0  0
  1  2  1  0
  2  3  1  0
  3  4  1  0
  4  5  1  0
  5  6  1  0
  4  6  1  0
  6  7  2  0
  2  8  1  0
  8  9  2  0
  8 10  1  0
  1 11  1  0
 11 12  2  0
 11 13  1  0
 13 14  1  0
 14 15  1  0
 15 16  1  0
 15 17  1  0
 17 18  2  0
 17 19  1  0
M  END
>  <cdk:Title>  (109) 
Hypoglycine b

>  <1A2>  (109) 
N

>  <2A6>  (109) 
N

>  <2B6>  (109) 
N

>  <2C8>  (109) 
N

>  <2C9>  (109) 
N

>  <2C19>  (109) 
N

>  <2D6>  (109) 
N

>  <2E1>  (109) 
N

>  <3A4>  (109) 
N

>  <Citation>  (109) 
Nucleic Acids Res. 2018. Jan 4;46(D1):D608-17. PMID:29140435
Nucleic Acids Res. 2018 Jan 4;46(D1):D1074-D1082. PMID:29126136
Nucleic Acids Res., 45:D380-388 (2017).  PMID:27924025
Nucleic Acids Res. 2016 Jan 4;44(D1):D1202-13. PMID:26400175

>  <ROMol>  (109) 
<rdkit.Chem.rdchem.Mol object at 0x7c29060ef370>

>  <Drug_like>  (109) 
True

$$$$
Manglupenone
     RDKit          2D

 32 36  0  0  0  0  0  0  0  0999 V2000
   -5.6651    3.1496    0.0000 C   0  0  0  0  0  0  0  0  0  0  0  0
   -5.6651    1.6496    0.0000 C   0  0  0  0  0  0  0  0  0  0  0  0
   -4.3751    0.9096    0.0000 C   0  0  0  0  0  0  0  0  0  0  0  0
   -3.0851    1.6496    0.0000 C   0  0  0  0  0  0  0  0  0  0  0  0
   -3.0751    3.1496    0.0000 C   0  0  0  0  0  0  0  0  0  0  0  0
   -4.3751    3.8996    0.0000 C   0  0  0  0  0  0  0  0  0  0  0  0
   -1.7851    3.8996    0.0000 C   0  0  0  0  0  0  0  0  0  0  0  0
   -0.4951    3.1496    0.0000 C   0  0  0  0  0  0  0  0  0  0  0  0
   -0.4951    1.6596    0.0000 C   0  0  0  0  0  0  0  0  0  0  0  0
   -1.7851    0.9096    0.0000 C   0  0  0  0  0  0  0  0  0  0  0  0
    0.8049    3.8996    0.0000 C   0  0  0  0  0  0  0  0  0  0  0  0
    0.8149    5.3996    0.0000 C   0  0  0  0  0  0  0  0  0  0  0  0
   -0.4951    6.1596    0.0000 C   0  0  0  0  0  0  0  0  0  0  0  0
   -1.7951    5.3996    0.0000 C   0  0  0  0  0  0  0  0  0  0  0  0
    2.1149    6.1596    0.0000 C   0  0  0  0  0  0  0  0  0  0  0  0
    3.4149    5.3896    0.0000 C   0  0  0  0  0  0  0  0  0  0  0  0
    3.4149    3.8796    0.0000 C   0  0  0  0  0  0  0  0  0  0  0  0
    2.0949    3.1396    0.0000 C   0  0  0  0  0  0  0  0  0  0  0  0
    4.5449    6.3896    0.0000 C   0  0  0  0  0  0  0  0  0  0  0  0
    3.9349    7.7696    0.0000 C   0  0  0  0  0  0  0  0  0  0  0  0
    2.4449    7.6196    0.0000 C   0  0  0  0  0  0  0  0  0  0  0  0
    2.4591    9.5996    0.0000 C   0  0  0  0  0  0  0  0  0  0  0  0
    3.7636   10.3402    0.0000 C   0  0  0  0  0  0  0  0  0  0  0  0
    5.0572    9.5808    0.0000 O   0  0  0  0  0  0  0  0  0  0  0  0
    1.1655   10.3589    0.0000 C   0  0  0  0  0  0  0  0  0  0  0  0
    6.0955    4.1823    0.0000 C   0  0  0  0  0  0  0  0  0  0  0  0
    0.2811    1.0066    0.0000 C   0  0  0  0  0  0  0  0  0  0  0  0
    2.0508    1.6792    0.0000 C   0  0  0  0  0  0  0  0  0  0  0  0
   -3.0800    6.0896    0.0000 C   0  0  0  0  0  0  0  0  0  0  0  0
   -6.2628   -1.3443    0.0000 C   0  0  0  0  0  0  0  0  0  0  0  0
   -2.7956   -0.9763    0.0000 C   0  0  0  0  0  0  0  0  0  0  0  0
   -6.9631    0.8978    0.0000 O   0  0  0  0  0  0  0  0  0  0  0  0
  1  2  1  0
  2  3  1  0
  3  4  1  0
  4  5  1  0
  5  6  1  0
  1  6  2  0
  5  7  1  0
  7  8  1  0
  8  9  1  0
  9 10  1  0
  4 10  1  0
  8 11  1  0
 11 12  1  0
 12 13  2  0
 13 14  1  0
  7 14  1  0
 12 15  1  0
 15 16  1  0
 16 17  1  0
 17 18  1  0
 11 18  1  0
 16 19  1  0
 19 20  1  0
 20 21  1  0
 15 21  1  0
 21 22  1  0
 22 23  1  0
 23 24  1  0
 22 25  2  0
 16 26  1  1
 11 27  1  6
  8 28  1  1
  5 29  1  6
  3 30  1  0
  3 31  1  0
  2 32  2  0
M  END
>  <cdk:Title>  (110) 
Manglupenone

>  <1A2>  (110) 
N

>  <2A6>  (110) 
N

>  <2B6>  (110) 
N

>  <2C8>  (110) 
N

>  <2C9>  (110) 
N

>  <2C19>  (110) 
N

>  <2D6>  (110) 
N

>  <2E1>  (110) 
N

>  <3A4>  (110) 
N

>  <Citation>  (110) 
Nucleic Acids Res. 2018. Jan 4;46(D1):D608-17. PMID:29140435
Nucleic Acids Res. 2018 Jan 4;46(D1):D1074-D1082. PMID:29126136
Nucleic Acids Res., 45:D380-388 (2017).  PMID:27924025
Nucleic Acids Res. 2016 Jan 4;44(D1):D1202-13. PMID:26400175

>  <ROMol>  (110) 
<rdkit.Chem.rdchem.Mol object at 0x7c29060ef3e0>

>  <Drug_like>  (110) 
True

$$$$
Glutaminylvaline
     RDKit          2D

 17 16  0  0  0  0  0  0  0  0999 V2000
    9.7827   -1.7305    0.0000 C   0  0  0  0  0  0  0  0  0  0  0  0
    9.2697   -0.3210    0.0000 C   0  0  0  0  0  0  0  0  0  0  0  0
    9.2697    1.1790    0.0000 C   0  0  0  0  0  0  0  0  0  0  0  0
    6.7236   -1.7910    0.0000 C   0  0  0  0  0  0  0  0  0  0  0  0
    5.4245   -1.0410    0.0000 N   0  0  0  0  0  0  0  0  0  0  0  0
    4.1255   -1.7910    0.0000 C   0  0  0  0  0  0  0  0  0  0  0  0
    4.1255   -3.2910    0.0000 O   0  0  0  0  0  0  0  0  0  0  0  0
    2.8265   -1.0410    0.0000 C   0  0  0  0  0  0  0  0  0  0  0  0
    1.5537    0.4758    0.0000 N   0  0  0  0  0  0  0  0  0  0  0  0
    1.5274   -1.7910    0.0000 C   0  0  0  0  0  0  0  0  0  0  0  0
    1.5274   -3.2910    0.0000 C   0  0  0  0  0  0  0  0  0  0  0  0
    0.2284   -4.0410    0.0000 C   0  0  0  0  0  0  0  0  0  0  0  0
   -1.0706   -3.2910    0.0000 O   0  0  0  0  0  0  0  0  0  0  0  0
    0.2284   -5.5410    0.0000 N   0  0  0  0  0  0  0  0  0  0  0  0
    7.5650   -4.1026    0.0000 C   0  0  0  0  0  0  0  0  0  0  0  0
    9.0422   -4.3631    0.0000 O   0  0  0  0  0  0  0  0  0  0  0  0
    6.6008   -5.2517    0.0000 O   0  0  0  0  0  0  0  0  0  0  0  0
  1  2  1  0
  2  3  1  0
  2  4  1  0
  4  5  1  0
  5  6  1  0
  6  7  2  0
  6  8  1  0
  8  9  1  0
  8 10  1  0
 10 11  1  0
 11 12  1  0
 12 13  2  0
 12 14  1  0
  4 15  1  0
 15 16  1  0
 15 17  2  0
M  END
>  <cdk:Title>  (111) 
Glutaminylvaline

>  <1A2>  (111) 
N

>  <2A6>  (111) 
N

>  <2B6>  (111) 
N

>  <2C8>  (111) 
N

>  <2C9>  (111) 
N

>  <2C19>  (111) 
N

>  <2D6>  (111) 
N

>  <2E1>  (111) 
N

>  <3A4>  (111) 
N

>  <Citation>  (111) 
Nucleic Acids Res. 2018. Jan 4;46(D1):D608-17. PMID:29140435
Nucleic Acids Res. 2018 Jan 4;46(D1):D1074-D1082. PMID:29126136
Nucleic Acids Res., 45:D380-388 (2017).  PMID:27924025
Nucleic Acids Res. 2016 Jan 4;44(D1):D1202-13. PMID:26400175

>  <ROMol>  (111) 
<rdkit.Chem.rdchem.Mol object at 0x7c29060ef4c0>

>  <Drug_like>  (111) 
True

$$$$
(3R_5R)-3-(2-Oxopropyl)-5-[(6R_7S_11R)-6_7_11-trihydroxy-11-[(2R_5R)-5-[(1R)-1-h
     RDKit          2D

 43 44  0  0  0  0  0  0  0  0999 V2000
   -8.9209   -9.4486    0.0000 C   0  0  0  0  0  0  0  0  0  0  0  0
   -8.3192   -8.0746    0.0000 C   0  0  0  0  0  0  0  0  0  0  0  0
   -5.3972   -7.7496    0.0000 C   0  0  0  0  0  0  0  0  0  0  0  0
   -4.6028   -5.9359    0.0000 C   0  0  0  0  0  0  0  0  0  0  0  0
   -2.6350   -5.7170    0.0000 C   0  0  0  0  0  0  0  0  0  0  0  0
   -1.8406   -3.9033    0.0000 C   0  0  0  0  0  0  0  0  0  0  0  0
    0.1272   -3.6844    0.0000 C   0  0  0  0  0  0  0  0  0  0  0  0
    0.9216   -1.8707    0.0000 C   0  0  0  0  0  0  0  0  0  0  0  0
    2.8894   -1.6518    0.0000 C   0  0  0  0  0  0  0  0  0  0  0  0
    3.6838    0.1619    0.0000 C   0  0  0  0  0  0  0  0  0  0  0  0
    5.6516    0.3808    0.0000 C   0  0  0  0  0  0  0  0  0  0  0  0
    6.4460    2.1945    0.0000 C   0  0  0  0  0  0  0  0  0  0  0  0
    8.4138    2.4134    0.0000 C   0  0  0  0  0  0  0  0  0  0  0  0
    9.0156    3.7874    0.0000 C   0  0  0  0  0  0  0  0  0  0  0  0
    7.5837    4.2413    0.0000 C   0  0  0  0  0  0  0  0  0  0  0  0
    7.5772    5.7413    0.0000 C   0  0  0  0  0  0  0  0  0  0  0  0
    9.0053    6.2074    0.0000 C   0  0  0  0  0  0  0  0  0  0  0  0
   10.3016    6.9621    0.0000 C   0  0  0  0  0  0  0  0  0  0  0  0
   12.4364    5.7398    0.0000 C   0  0  0  0  0  0  0  0  0  0  0  0
   14.1476    6.7360    0.0000 C   0  0  0  0  0  0  0  0  0  0  0  0
   16.6990    5.2752    0.0000 C   0  0  0  0  0  0  0  0  0  0  0  0
   18.8250    6.5129    0.0000 C   0  0  0  0  0  0  0  0  0  0  0  0
   20.9598    5.2906    0.0000 C   0  0  0  0  0  0  0  0  0  0  0  0
   23.0858    6.5283    0.0000 C   0  0  0  0  0  0  0  0  0  0  0  0
   24.8041    5.5445    0.0000 C   0  0  0  0  0  0  0  0  0  0  0  0
   26.1004    6.2991    0.0000 C   0  0  0  0  0  0  0  0  0  0  0  0
   28.6518    4.8384    0.0000 C   0  0  0  0  0  0  0  0  0  0  0  0
   29.9481    5.5930    0.0000 C   0  0  0  0  0  0  0  0  0  0  0  0
   31.2499    4.8477    0.0000 C   0  0  0  0  0  0  0  0  0  0  0  0
   32.3582    3.8480    0.0000 C   0  0  0  0  0  0  0  0  0  0  0  0
   33.6573    4.5980    0.0000 C   0  0  0  0  0  0  0  0  0  0  0  0
   34.8539    1.9125    0.0000 C   0  0  0  0  0  0  0  0  0  0  0  0
   36.3457    1.7562    0.0000 C   0  0  0  0  0  0  0  0  0  0  0  0
   36.9562    0.3860    0.0000 C   0  0  0  0  0  0  0  0  0  0  0  0
   37.2270    2.9699    0.0000 O   0  0  0  0  0  0  0  0  0  0  0  0
   33.3456    6.0577    0.0000 C   0  0  0  0  0  0  0  0  0  0  0  0
   34.3521    7.1700    0.0000 O   0  0  0  0  0  0  0  0  0  0  0  0
   31.8527    6.2235    0.0000 O   0  0  0  0  0  0  0  0  0  0  0  0
   19.9998    4.1380    0.0000 O   0  0  0  0  0  0  0  0  0  0  0  0
   19.7850    7.6654    0.0000 O   0  0  0  0  0  0  0  0  0  0  0  0
   11.2616    8.1146    0.0000 O   0  0  0  0  0  0  0  0  0  0  0  0
    9.8904    5.0011    0.0000 O   0  0  0  0  0  0  0  0  0  0  0  0
    8.3183    0.9164    0.0000 O   0  0  0  0  0  0  0  0  0  0  0  0
  1  2  1  0
  2  3  1  0
  3  4  1  0
  4  5  1  0
  5  6  1  0
  6  7  1  0
  7  8  1  0
  8  9  1  0
  9 10  1  0
 10 11  1  0
 11 12  1  0
 12 13  1  0
 13 14  1  0
 14 15  1  0
 15 16  1  0
 16 17  1  0
 17 18  1  0
 18 19  1  0
 19 20  1  0
 20 21  1  0
 21 22  1  0
 22 23  1  0
 23 24  1  0
 24 25  1  0
 25 26  1  0
 26 27  1  0
 27 28  1  0
 28 29  1  0
 29 30  1  0
 30 31  1  0
 31 32  1  0
 32 33  1  0
 33 34  1  0
 33 35  2  0
 31 36  1  0
 36 37  2  0
 36 38  1  0
 29 38  1  0
 23 39  1  0
 22 40  1  0
 18 41  1  0
 17 42  1  0
 14 42  1  0
 13 43  1  0
M  END
>  <cdk:Title>  (112) 
(3R_5R)-3-(2-Oxopropyl)-5-[(6R_7S_11R)-6_7_11-trihydroxy-11-[(2R_5R)-5-[(1R)-1-hydroxytridecyl]oxolan-2-yl]undecyl]oxolan-2-one

>  <1A2>  (112) 
N

>  <2A6>  (112) 
N

>  <2B6>  (112) 
N

>  <2C8>  (112) 
N

>  <2C9>  (112) 
N

>  <2C19>  (112) 
N

>  <2D6>  (112) 
N

>  <2E1>  (112) 
N

>  <3A4>  (112) 
N

>  <Citation>  (112) 
Nucleic Acids Res. 2018. Jan 4;46(D1):D608-17. PMID:29140435
Nucleic Acids Res. 2018 Jan 4;46(D1):D1074-D1082. PMID:29126136
Nucleic Acids Res., 45:D380-388 (2017).  PMID:27924025
Nucleic Acids Res. 2016 Jan 4;44(D1):D1202-13. PMID:26400175

>  <ROMol>  (112) 
<rdkit.Chem.rdchem.Mol object at 0x7c29060ef530>

>  <Drug_like>  (112) 
True

$$$$
[(e)-2_6-Dimethyl-6-hydroxy-1-oxoocta-2_7-dienyl]beta-D-glucopyranoside
     RDKit          2D

 24 24  0  0  0  0  0  0  0  0999 V2000
   -0.6202    0.6911    0.0000 C   0  0  0  0  0  0  0  0  0  0  0  0
    0.3414    1.8424    0.0000 C   0  0  0  0  0  0  0  0  0  0  0  0
    1.8192    1.5853    0.0000 C   0  0  0  0  0  0  0  0  0  0  0  0
    3.2958    1.8492    0.0000 C   0  0  0  0  0  0  0  0  0  0  0  0
    2.5007   -0.2737    0.0000 C   0  0  0  0  0  0  0  0  0  0  0  0
    5.3972   -0.7776    0.0000 C   0  0  0  0  0  0  0  0  0  0  0  0
    5.9134   -2.1859    0.0000 C   0  0  0  0  0  0  0  0  0  0  0  0
    7.3912   -2.4430    0.0000 C   0  0  0  0  0  0  0  0  0  0  0  0
    7.9075   -3.8513    0.0000 C   0  0  0  0  0  0  0  0  0  0  0  0
    8.3528   -1.2917    0.0000 C   0  0  0  0  0  0  0  0  0  0  0  0
    7.8365    0.1166    0.0000 O   0  0  0  0  0  0  0  0  0  0  0  0
    9.8306   -1.5488    0.0000 O   0  0  0  0  0  0  0  0  0  0  0  0
   10.7921   -0.3975    0.0000 C   0  0  0  0  0  0  0  0  0  0  0  0
   11.7551   -1.5345    0.0000 C   0  0  0  0  0  0  0  0  0  0  0  0
   13.2536   -1.2613    0.0000 C   0  0  0  0  0  0  0  0  0  0  0  0
   13.7544    0.1588    0.0000 C   0  0  0  0  0  0  0  0  0  0  0  0
   12.7914    1.2958    0.0000 C   0  0  0  0  0  0  0  0  0  0  0  0
   12.2716    2.7029    0.0000 C   0  0  0  0  0  0  0  0  0  0  0  0
   13.2302    3.8566    0.0000 O   0  0  0  0  0  0  0  0  0  0  0  0
   11.3146    1.0279    0.0000 O   0  0  0  0  0  0  0  0  0  0  0  0
   14.7112    1.3141    0.0000 O   0  0  0  0  0  0  0  0  0  0  0  0
   14.7330   -1.5090    0.0000 O   0  0  0  0  0  0  0  0  0  0  0  0
   12.2757   -2.9412    0.0000 O   0  0  0  0  0  0  0  0  0  0  0  0
    1.8157    3.0853    0.0000 O   0  0  0  0  0  0  0  0  0  0  0  0
  1  2  2  0
  2  3  1  0
  3  4  1  6
  3  5  1  0
  5  6  1  0
  6  7  1  0
  7  8  2  0
  8  9  1  0
  8 10  1  0
 10 11  2  0
 10 12  1  0
 12 13  1  0
 13 14  1  0
 14 15  1  0
 15 16  1  0
 16 17  1  0
 17 18  1  0
 18 19  1  0
 17 20  1  0
 13 20  1  0
 16 21  1  0
 15 22  1  0
 14 23  1  0
  3 24  1  0
M  END
>  <cdk:Title>  (113) 
[(e)-2_6-Dimethyl-6-hydroxy-1-oxoocta-2_7-dienyl]beta-D-glucopyranoside

>  <1A2>  (113) 
N

>  <2A6>  (113) 
N

>  <2B6>  (113) 
N

>  <2C8>  (113) 
N

>  <2C9>  (113) 
N

>  <2C19>  (113) 
N

>  <2D6>  (113) 
N

>  <2E1>  (113) 
N

>  <3A4>  (113) 
N

>  <Citation>  (113) 
Nucleic Acids Res. 2018. Jan 4;46(D1):D608-17. PMID:29140435
Nucleic Acids Res. 2018 Jan 4;46(D1):D1074-D1082. PMID:29126136
Nucleic Acids Res., 45:D380-388 (2017).  PMID:27924025
Nucleic Acids Res. 2016 Jan 4;44(D1):D1202-13. PMID:26400175

>  <ROMol>  (113) 
<rdkit.Chem.rdchem.Mol object at 0x7c29060ef5a0>

>  <Drug_like>  (113) 
True

$$$$
Methyl (1R_2R_4as_6as_6BR_10S_12ar_14BS)-1-hydroxy-1_2_6a_6b_9_9_12a-heptamethyl
     RDKit          2D

 44 49  0  0  0  0  0  0  0  0999 V2000
    6.6677   -1.3386    0.0000 C   0  0  0  0  0  0  0  0  0  0  0  0
    5.1905   -1.5994    0.0000 C   0  0  0  0  0  0  0  0  0  0  0  0
    4.6780   -3.0100    0.0000 C   0  0  0  0  0  0  0  0  0  0  0  0
    5.6426   -4.1598    0.0000 C   0  0  0  0  0  0  0  0  0  0  0  0
    5.1300   -5.5704    0.0000 C   0  0  0  0  0  0  0  0  0  0  0  0
    3.6528   -5.8312    0.0000 C   0  0  0  0  0  0  0  0  0  0  0  0
    3.1385   -7.2319    0.0000 C   0  0  0  0  0  0  0  0  0  0  0  0
    4.1031   -8.3817    0.0000 C   0  0  0  0  0  0  0  0  0  0  0  0
    3.5906   -9.7923    0.0000 C   0  0  0  0  0  0  0  0  0  0  0  0
    4.5552  -10.9421    0.0000 C   0  0  0  0  0  0  0  0  0  0  0  0
    6.0323  -10.6813    0.0000 C   0  0  0  0  0  0  0  0  0  0  0  0
    8.9279  -11.1906    0.0000 C   0  0  0  0  0  0  0  0  0  0  0  0
    6.5449   -9.2708    0.0000 C   0  0  0  0  0  0  0  0  0  0  0  0
    7.5089   -8.1216    0.0000 C   0  0  0  0  0  0  0  0  0  0  0  0
    5.5803   -8.1209    0.0000 C   0  0  0  0  0  0  0  0  0  0  0  0
    6.0928   -6.7103    0.0000 C   0  0  0  0  0  0  0  0  0  0  0  0
    7.5700   -6.4496    0.0000 C   0  0  0  0  0  0  0  0  0  0  0  0
    8.0843   -5.0488    0.0000 C   0  0  0  0  0  0  0  0  0  0  0  0
    7.1197   -3.8990    0.0000 C   0  0  0  0  0  0  0  0  0  0  0  0
    7.6323   -2.4884    0.0000 C   0  0  0  0  0  0  0  0  0  0  0  0
    9.5229   -4.7399    0.0000 C   0  0  0  0  0  0  0  0  0  0  0  0
    9.1094   -2.2276    0.0000 C   0  0  0  0  0  0  0  0  0  0  0  0
    9.6220   -0.8170    0.0000 C   0  0  0  0  0  0  0  0  0  0  0  0
    8.6574    0.3328    0.0000 C   0  0  0  0  0  0  0  0  0  0  0  0
    7.9800    2.1933    0.0000 O   0  0  0  0  0  0  0  0  0  0  0  0
    9.8696    4.4457    0.0000 C   0  0  0  0  0  0  0  0  0  0  0  0
   11.1691    5.1965    0.0000 O   0  0  0  0  0  0  0  0  0  0  0  0
   11.1696    6.6973    0.0000 C   0  0  0  0  0  0  0  0  0  0  0  0
    9.8705    7.4473    0.0000 C   0  0  0  0  0  0  0  0  0  0  0  0
    8.5710    6.6965    0.0000 C   0  0  0  0  0  0  0  0  0  0  0  0
    8.5705    5.1957    0.0000 C   0  0  0  0  0  0  0  0  0  0  0  0
    7.0934    5.4565    0.0000 O   0  0  0  0  0  0  0  0  0  0  0  0
    8.0578    8.1060    0.0000 O   0  0  0  0  0  0  0  0  0  0  0  0
   10.8346    8.5965    0.0000 O   0  0  0  0  0  0  0  0  0  0  0  0
    7.1802    0.0720    0.0000 C   0  0  0  0  0  0  0  0  0  0  0  0
    4.7574    0.4981    0.0000 C   0  0  0  0  0  0  0  0  0  0  0  0
    7.1798    1.5720    0.0000 C   0  0  0  0  0  0  0  0  0  0  0  0
    7.8442  -10.0203    0.0000 O   0  0  0  0  0  0  0  0  0  0  0  0
    1.6806   -8.8094    0.0000 C   0  0  0  0  0  0  0  0  0  0  0  0
    0.7162   -7.6606    0.0000 O   0  0  0  0  0  0  0  0  0  0  0  0
    1.1679  -10.2191    0.0000 O   0  0  0  0  0  0  0  0  0  0  0  0
   -0.3093  -10.4799    0.0000 C   0  0  0  0  0  0  0  0  0  0  0  0
    3.6590   -3.0248    0.0000 C   0  0  0  0  0  0  0  0  0  0  0  0
    2.7473   -4.6709    0.0000 C   0  0  0  0  0  0  0  0  0  0  0  0
  1  2  1  0
  2  3  1  0
  3  4  1  0
  4  5  1  0
  5  6  1  0
  6  7  1  0
  7  8  1  0
  8  9  1  0
  9 10  1  0
 10 11  1  0
 11 12  1  0
 11 13  1  0
 13 14  1  1
 13 15  1  0
  8 15  1  0
 15 16  1  0
  5 16  1  0
 16 17  2  0
 17 18  1  0
 18 19  1  0
  4 19  1  0
 19 20  1  0
  1 20  1  0
 20 21  1  1
 20 22  1  0
 22 23  1  0
 23 24  1  0
 24 25  1  0
 25 26  1  0
 26 27  1  0
 27 28  1  0
 28 29  1  0
 29 30  1  0
 30 31  1  0
 26 31  1  0
 31 32  1  0
 30 33  1  0
 29 34  1  0
 24 35  1  0
  1 35  1  0
 35 36  1  0
 35 37  1  0
 13 38  1  0
  8 39  1  1
 39 40  2  0
 39 41  1  0
 41 42  1  0
  5 43  1  6
  4 44  1  1
M  END
>  <cdk:Title>  (114) 
Methyl (1R_2R_4as_6as_6BR_10S_12ar_14BS)-1-hydroxy-1_2_6a_6b_9_9_12a-heptamethyl-10-{[(2S_3R_4S_5S)-3_4_5-trihydroxyoxan-2-yl]oxy}-1_2_3_4_4a_5_6_6a_6b_7_8_8a_9_10_11_12_12a_12b_13_14b-icosahydropicene-4a-carboxylate

>  <1A2>  (114) 
N

>  <2A6>  (114) 
N

>  <2B6>  (114) 
N

>  <2C8>  (114) 
N

>  <2C9>  (114) 
N

>  <2C19>  (114) 
N

>  <2D6>  (114) 
N

>  <2E1>  (114) 
N

>  <3A4>  (114) 
N

>  <Citation>  (114) 
Nucleic Acids Res. 2018. Jan 4;46(D1):D608-17. PMID:29140435
Nucleic Acids Res. 2018 Jan 4;46(D1):D1074-D1082. PMID:29126136
Nucleic Acids Res., 45:D380-388 (2017).  PMID:27924025
Nucleic Acids Res. 2016 Jan 4;44(D1):D1202-13. PMID:26400175

>  <ROMol>  (114) 
<rdkit.Chem.rdchem.Mol object at 0x7c29060ef610>

>  <Drug_like>  (114) 
True

$$$$
1_2-Diphenyl-cyclobutane
     RDKit          2D

 27 28  0  0  0  0  0  0  0  0999 V2000
   10.7212    4.1824    0.0000 C   0  0  0  0  0  0  0  0  0  0  0  0
    9.2434    4.4395    0.0000 C   0  0  0  0  0  0  0  0  0  0  0  0
    8.2819    3.2882    0.0000 C   0  0  0  0  0  0  0  0  0  0  0  0
    6.3312    3.6275    0.0000 C   0  0  0  0  0  0  0  0  0  0  0  0
    4.7543    1.7394    0.0000 C   0  0  0  0  0  0  0  0  0  0  0  0
    3.2764    1.9965    0.0000 C   0  0  0  0  0  0  0  0  0  0  0  0
    2.3149    0.8452    0.0000 O   0  0  0  0  0  0  0  0  0  0  0  0
    0.3642    1.1845    0.0000 C   0  0  0  0  0  0  0  0  0  0  0  0
    0.3642   -0.3055    0.0000 C   0  0  0  0  0  0  0  0  0  0  0  0
   -0.9558   -1.0655    0.0000 C   0  0  0  0  0  0  0  0  0  0  0  0
   -2.2558   -0.3055    0.0000 C   0  0  0  0  0  0  0  0  0  0  0  0
   -2.2558    1.1845    0.0000 C   0  0  0  0  0  0  0  0  0  0  0  0
   -2.7685    2.5942    0.0000 C   0  0  0  0  0  0  0  0  0  0  0  0
   -4.2457    2.8550    0.0000 O   0  0  0  0  0  0  0  0  0  0  0  0
   -4.7584    4.2646    0.0000 C   0  0  0  0  0  0  0  0  0  0  0  0
   -6.1080    3.6081    0.0000 C   0  0  0  0  0  0  0  0  0  0  0  0
   -7.1422    4.6835    0.0000 C   0  0  0  0  0  0  0  0  0  0  0  0
   -6.4455    6.0107    0.0000 C   0  0  0  0  0  0  0  0  0  0  0  0
   -6.0318    7.4525    0.0000 C   0  0  0  0  0  0  0  0  0  0  0  0
   -7.0736    8.5317    0.0000 O   0  0  0  0  0  0  0  0  0  0  0  0
   -4.9688    5.7459    0.0000 O   0  0  0  0  0  0  0  0  0  0  0  0
   -8.3881    5.5188    0.0000 O   0  0  0  0  0  0  0  0  0  0  0  0
   -7.2917    2.6867    0.0000 O   0  0  0  0  0  0  0  0  0  0  0  0
   -0.9558    1.9345    0.0000 O   0  0  0  0  0  0  0  0  0  0  0  0
   -3.7325   -0.0423    0.0000 O   0  0  0  0  0  0  0  0  0  0  0  0
   -1.9246   -2.2107    0.0000 O   0  0  0  0  0  0  0  0  0  0  0  0
    0.8761   -1.7154    0.0000 O   0  0  0  0  0  0  0  0  0  0  0  0
  1  2  1  0
  2  3  1  0
  3  4  1  0
  4  5  1  0
  5  6  1  0
  6  7  1  0
  7  8  1  0
  8  9  1  0
  9 10  1  0
 10 11  1  0
 11 12  1  0
 12 13  1  0
 13 14  1  0
 14 15  1  0
 15 16  1  0
 16 17  1  0
 17 18  1  0
 18 19  1  0
 19 20  1  0
 18 21  1  0
 15 21  1  0
 17 22  1  0
 16 23  1  0
 12 24  1  0
  8 24  1  0
 11 25  1  0
 10 26  1  0
  9 27  1  0
M  END
>  <cdk:Title>  (115) 
1_2-Diphenyl-cyclobutane

>  <1A2>  (115) 
N

>  <2A6>  (115) 
N

>  <2B6>  (115) 
N

>  <2C8>  (115) 
N

>  <2C9>  (115) 
N

>  <2C19>  (115) 
N

>  <2D6>  (115) 
N

>  <2E1>  (115) 
N

>  <3A4>  (115) 
N

>  <Citation>  (115) 
Nucleic Acids Res. 2018. Jan 4;46(D1):D608-17. PMID:29140435
Nucleic Acids Res. 2018 Jan 4;46(D1):D1074-D1082. PMID:29126136
Nucleic Acids Res., 45:D380-388 (2017).  PMID:27924025
Nucleic Acids Res. 2016 Jan 4;44(D1):D1202-13. PMID:26400175

>  <ROMol>  (115) 
<rdkit.Chem.rdchem.Mol object at 0x7c29060ef6f0>

>  <Drug_like>  (115) 
True

$$$$
Gibberellin a20 13-glucoside
     RDKit          2D

 35 40  0  0  0  0  0  0  0  0999 V2000
    6.3693   -8.2165    0.0000 C   0  0  0  0  0  0  0  0  0  0  0  0
    8.2460   -7.5851    0.0000 C   0  0  0  0  0  0  0  0  0  0  0  0
    9.3730   -8.5762    0.0000 C   0  0  0  0  0  0  0  0  0  0  0  0
   10.7750   -8.1020    0.0000 C   0  0  0  0  0  0  0  0  0  0  0  0
   11.0688   -6.6302    0.0000 C   0  0  0  0  0  0  0  0  0  0  0  0
    9.9450   -5.6485    0.0000 C   0  0  0  0  0  0  0  0  0  0  0  0
    8.5431   -6.1228    0.0000 C   0  0  0  0  0  0  0  0  0  0  0  0
    7.4192   -5.1412    0.0000 C   0  0  0  0  0  0  0  0  0  0  0  0
    4.8416   -6.5552    0.0000 C   0  0  0  0  0  0  0  0  0  0  0  0
    4.8088   -8.0548    0.0000 O   0  0  0  0  0  0  0  0  0  0  0  0
    3.5593   -5.7770    0.0000 O   0  0  0  0  0  0  0  0  0  0  0  0
    7.7163   -3.6789    0.0000 C   0  0  0  0  0  0  0  0  0  0  0  0
    6.1993   -3.8754    0.0000 C   0  0  0  0  0  0  0  0  0  0  0  0
    5.5584   -1.9808    0.0000 C   0  0  0  0  0  0  0  0  0  0  0  0
    4.1548   -1.4517    0.0000 C   0  0  0  0  0  0  0  0  0  0  0  0
    6.8831   -1.2160    0.0000 C   0  0  0  0  0  0  0  0  0  0  0  0
    8.2851   -0.7417    0.0000 C   0  0  0  0  0  0  0  0  0  0  0  0
    9.4121   -1.7328    0.0000 C   0  0  0  0  0  0  0  0  0  0  0  0
    9.1183   -3.2046    0.0000 C   0  0  0  0  0  0  0  0  0  0  0  0
    6.5893   -2.6878    0.0000 C   0  0  0  0  0  0  0  0  0  0  0  0
    6.2648    0.1507    0.0000 O   0  0  0  0  0  0  0  0  0  0  0  0
    7.4189    1.7595    0.0000 C   0  0  0  0  0  0  0  0  0  0  0  0
    8.6685    2.6218    0.0000 O   0  0  0  0  0  0  0  0  0  0  0  0
    8.5587    4.1186    0.0000 C   0  0  0  0  0  0  0  0  0  0  0  0
    7.2171    4.7668    0.0000 C   0  0  0  0  0  0  0  0  0  0  0  0
    5.9672    3.9268    0.0000 C   0  0  0  0  0  0  0  0  0  0  0  0
    6.0773    2.4077    0.0000 C   0  0  0  0  0  0  0  0  0  0  0  0
    4.5851    2.5601    0.0000 O   0  0  0  0  0  0  0  0  0  0  0  0
    5.3575    5.2973    0.0000 O   0  0  0  0  0  0  0  0  0  0  0  0
    8.0964    5.9820    0.0000 O   0  0  0  0  0  0  0  0  0  0  0  0
   10.0510    3.9670    0.0000 C   0  0  0  0  0  0  0  0  0  0  0  0
   10.9284    5.1836    0.0000 O   0  0  0  0  0  0  0  0  0  0  0  0
   11.3375   -5.1775    0.0000 O   0  0  0  0  0  0  0  0  0  0  0  0
    9.5867   -7.5538    0.0000 C   0  0  0  0  0  0  0  0  0  0  0  0
   10.2788   -8.8846    0.0000 O   0  0  0  0  0  0  0  0  0  0  0  0
  2  1  1  6
  2  3  1  0
  3  4  1  0
  4  5  1  0
  6  5  1  1
  6  7  1  0
  2  7  1  0
  7  8  1  0
  8  9  1  0
  9 10  2  0
  9 11  1  0
  8 12  1  0
 12 13  1  1
 13 14  1  0
 14 15  2  0
 14 16  1  0
 16 17  1  0
 17 18  1  0
 18 19  1  0
  6 19  1  0
 12 19  1  0
 16 20  1  0
 12 20  1  0
 16 21  1  6
 21 22  1  0
 22 23  1  0
 23 24  1  0
 24 25  1  0
 25 26  1  0
 26 27  1  0
 22 27  1  0
 27 28  1  0
 26 29  1  0
 25 30  1  0
 24 31  1  0
 31 32  1  0
  6 33  1  0
 33 34  1  0
  2 34  1  0
 34 35  2  0
M  END
>  <cdk:Title>  (116) 
Gibberellin a20 13-glucoside

>  <1A2>  (116) 
N

>  <2A6>  (116) 
N

>  <2B6>  (116) 
N

>  <2C8>  (116) 
N

>  <2C9>  (116) 
N

>  <2C19>  (116) 
N

>  <2D6>  (116) 
N

>  <2E1>  (116) 
N

>  <3A4>  (116) 
N

>  <Citation>  (116) 
Nucleic Acids Res. 2018. Jan 4;46(D1):D608-17. PMID:29140435
Nucleic Acids Res. 2018 Jan 4;46(D1):D1074-D1082. PMID:29126136
Nucleic Acids Res., 45:D380-388 (2017).  PMID:27924025
Nucleic Acids Res. 2016 Jan 4;44(D1):D1202-13. PMID:26400175

>  <ROMol>  (116) 
<rdkit.Chem.rdchem.Mol object at 0x7c29060ef840>

>  <Drug_like>  (116) 
True

$$$$
1beta-Hydroxyalantolactone
     RDKit          2D

 18 20  0  0  0  0  0  0  0  0999 V2000
   -2.8392   -4.3208    0.0000 C   0  0  0  0  0  0  0  0  0  0  0  0
   -1.5683   -2.8024    0.0000 C   0  0  0  0  0  0  0  0  0  0  0  0
   -2.8683   -2.0524    0.0000 C   0  0  0  0  0  0  0  0  0  0  0  0
   -2.8683   -0.5524    0.0000 C   0  0  0  0  0  0  0  0  0  0  0  0
   -1.5683    0.1976    0.0000 C   0  0  0  0  0  0  0  0  0  0  0  0
   -0.2683   -0.5524    0.0000 C   0  0  0  0  0  0  0  0  0  0  0  0
   -0.2647    2.3876    0.0000 C   0  0  0  0  0  0  0  0  0  0  0  0
    1.0217    0.1876    0.0000 C   0  0  0  0  0  0  0  0  0  0  0  0
    2.3217   -0.5624    0.0000 C   0  0  0  0  0  0  0  0  0  0  0  0
    2.3117   -2.0724    0.0000 C   0  0  0  0  0  0  0  0  0  0  0  0
    1.0117   -2.8024    0.0000 C   0  0  0  0  0  0  0  0  0  0  0  0
   -0.2783   -2.0524    0.0000 C   0  0  0  0  0  0  0  0  0  0  0  0
    3.7417   -2.5524    0.0000 C   0  0  0  0  0  0  0  0  0  0  0  0
    4.1931   -3.9829    0.0000 C   0  0  0  0  0  0  0  0  0  0  0  0
    4.6417   -1.3324    0.0000 C   0  0  0  0  0  0  0  0  0  0  0  0
    6.1417   -1.3405    0.0000 O   0  0  0  0  0  0  0  0  0  0  0  0
    3.7617   -0.1124    0.0000 O   0  0  0  0  0  0  0  0  0  0  0  0
   -0.6042    1.3467    0.0000 O   0  0  0  0  0  0  0  0  0  0  0  0
  1  2  1  0
  2  3  1  0
  3  4  1  0
  4  5  1  0
  5  6  1  0
  6  7  1  6
  6  8  1  0
  8  9  1  0
  9 10  1  0
 10 11  1  0
 11 12  2  0
  2 12  1  0
  6 12  1  0
 10 13  1  0
 13 14  2  0
 13 15  1  0
 15 16  2  0
 15 17  1  0
  9 17  1  0
  5 18  1  0
M  END
>  <cdk:Title>  (117) 
1beta-Hydroxyalantolactone

>  <1A2>  (117) 
N

>  <2A6>  (117) 
N

>  <2B6>  (117) 
N

>  <2C8>  (117) 
N

>  <2C9>  (117) 
N

>  <2C19>  (117) 
N

>  <2D6>  (117) 
N

>  <2E1>  (117) 
N

>  <3A4>  (117) 
N

>  <Citation>  (117) 
Nucleic Acids Res. 2018. Jan 4;46(D1):D608-17. PMID:29140435
Nucleic Acids Res. 2018 Jan 4;46(D1):D1074-D1082. PMID:29126136
Nucleic Acids Res., 45:D380-388 (2017).  PMID:27924025
Nucleic Acids Res. 2016 Jan 4;44(D1):D1202-13. PMID:26400175

>  <ROMol>  (117) 
<rdkit.Chem.rdchem.Mol object at 0x7c29060ef8b0>

>  <Drug_like>  (117) 
True

$$$$
3-O-a-L-Fucopyranosyl-D-glucose
     RDKit          2D

 22 22  0  0  0  0  0  0  0  0999 V2000
   -0.7447    0.8976    0.0000 C   0  0  0  0  0  0  0  0  0  0  0  0
    0.7331    0.6406    0.0000 O   0  0  0  0  0  0  0  0  0  0  0  0
    2.0023    2.1602    0.0000 C   0  0  0  0  0  0  0  0  0  0  0  0
    2.6752    4.0224    0.0000 C   0  0  0  0  0  0  0  0  0  0  0  0
    3.6368    5.1737    0.0000 O   0  0  0  0  0  0  0  0  0  0  0  0
    1.7084    5.1692    0.0000 C   0  0  0  0  0  0  0  0  0  0  0  0
    2.2182    6.5799    0.0000 O   0  0  0  0  0  0  0  0  0  0  0  0
    4.8988    1.6564    0.0000 C   0  0  0  0  0  0  0  0  0  0  0  0
    4.8954    3.1564    0.0000 O   0  0  0  0  0  0  0  0  0  0  0  0
    5.4151    0.2480    0.0000 C   0  0  0  0  0  0  0  0  0  0  0  0
    5.4185   -1.2520    0.0000 O   0  0  0  0  0  0  0  0  0  0  0  0
    7.3658   -0.0913    0.0000 C   0  0  0  0  0  0  0  0  0  0  0  0
    7.8821   -1.4997    0.0000 O   0  0  0  0  0  0  0  0  0  0  0  0
   -0.7447   -0.5924    0.0000 C   0  0  0  0  0  0  0  0  0  0  0  0
   -0.2328   -2.0023    0.0000 O   0  0  0  0  0  0  0  0  0  0  0  0
   -2.0647   -1.3524    0.0000 C   0  0  0  0  0  0  0  0  0  0  0  0
   -3.3647   -0.5924    0.0000 C   0  0  0  0  0  0  0  0  0  0  0  0
   -3.3647    0.8976    0.0000 C   0  0  0  0  0  0  0  0  0  0  0  0
   -2.0647    1.6476    0.0000 O   0  0  0  0  0  0  0  0  0  0  0  0
   -3.8775    2.3073    0.0000 C   0  0  0  0  0  0  0  0  0  0  0  0
   -4.8415   -0.3292    0.0000 O   0  0  0  0  0  0  0  0  0  0  0  0
   -3.0335   -2.4976    0.0000 O   0  0  0  0  0  0  0  0  0  0  0  0
  1  2  1  0
  2  3  1  0
  3  4  1  0
  4  5  1  0
  4  6  1  0
  6  7  2  0
  3  8  1  0
  8  9  1  0
  8 10  1  0
 10 11  1  0
 10 12  1  0
 12 13  1  0
  1 14  1  0
 14 15  1  0
 14 16  1  0
 16 17  1  0
 17 18  1  0
 18 19  1  0
  1 19  1  0
 18 20  1  0
 17 21  1  0
 16 22  1  0
M  END
>  <cdk:Title>  (118) 
3-O-a-L-Fucopyranosyl-D-glucose

>  <1A2>  (118) 
N

>  <2A6>  (118) 
N

>  <2B6>  (118) 
N

>  <2C8>  (118) 
N

>  <2C9>  (118) 
N

>  <2C19>  (118) 
N

>  <2D6>  (118) 
N

>  <2E1>  (118) 
N

>  <3A4>  (118) 
N

>  <Citation>  (118) 
Nucleic Acids Res. 2018. Jan 4;46(D1):D608-17. PMID:29140435
Nucleic Acids Res. 2018 Jan 4;46(D1):D1074-D1082. PMID:29126136
Nucleic Acids Res., 45:D380-388 (2017).  PMID:27924025
Nucleic Acids Res. 2016 Jan 4;44(D1):D1202-13. PMID:26400175

>  <ROMol>  (118) 
<rdkit.Chem.rdchem.Mol object at 0x7c29060ef990>

>  <Drug_like>  (118) 
True

$$$$
(1S_3AR_5R_7S_7as)-1-[(1S)-1-hydroxyethyl]-4-methylidene-2-oxo-7-(propan-2-yl)-o
     RDKit          2D

 24 25  0  0  0  0  0  0  0  0999 V2000
   -5.4770    6.5351    0.0000 C   0  0  0  0  0  0  0  0  0  0  0  0
   -3.9997    6.7952    0.0000 C   0  0  0  0  0  0  0  0  0  0  0  0
   -4.5124    8.2049    0.0000 C   0  0  0  0  0  0  0  0  0  0  0  0
   -2.0499    6.4510    0.0000 C   0  0  0  0  0  0  0  0  0  0  0  0
   -1.5371    5.0413    0.0000 C   0  0  0  0  0  0  0  0  0  0  0  0
   -2.5015    3.8925    0.0000 O   0  0  0  0  0  0  0  0  0  0  0  0
   -0.0600    4.7805    0.0000 O   0  0  0  0  0  0  0  0  0  0  0  0
    0.4528    3.3709    0.0000 C   0  0  0  0  0  0  0  0  0  0  0  0
    0.4528    1.8709    0.0000 C   0  0  0  0  0  0  0  0  0  0  0  0
    1.7528    1.1209    0.0000 C   0  0  0  0  0  0  0  0  0  0  0  0
   -0.1368   -1.1315    0.0000 C   0  0  0  0  0  0  0  0  0  0  0  0
    0.5406   -2.9920    0.0000 C   0  0  0  0  0  0  0  0  0  0  0  0
   -1.1011    0.0175    0.0000 C   0  0  0  0  0  0  0  0  0  0  0  0
    3.0528    1.8709    0.0000 C   0  0  0  0  0  0  0  0  0  0  0  0
    3.0528    3.3709    0.0000 C   0  0  0  0  0  0  0  0  0  0  0  0
    4.4828    3.8309    0.0000 C   0  0  0  0  0  0  0  0  0  0  0  0
    5.3628    2.6209    0.0000 C   0  0  0  0  0  0  0  0  0  0  0  0
    4.4828    1.4109    0.0000 C   0  0  0  0  0  0  0  0  0  0  0  0
    3.2918   -1.2771    0.0000 C   0  0  0  0  0  0  0  0  0  0  0  0
    4.1756   -2.4890    0.0000 C   0  0  0  0  0  0  0  0  0  0  0  0
    2.0467   -0.4405    0.0000 O   0  0  0  0  0  0  0  0  0  0  0  0
    6.8628    2.6209    0.0000 O   0  0  0  0  0  0  0  0  0  0  0  0
    1.7528    4.1209    0.0000 C   0  0  0  0  0  0  0  0  0  0  0  0
    1.7528    5.6209    0.0000 C   0  0  0  0  0  0  0  0  0  0  0  0
  1  2  1  0
  2  3  1  0
  2  4  1  0
  4  5  1  0
  5  6  2  0
  5  7  1  0
  7  8  1  0
  8  9  1  0
  9 10  1  0
 10 11  1  0
 11 12  1  0
 11 13  1  0
 10 14  1  0
 14 15  1  0
 15 16  1  0
 16 17  1  0
 17 18  1  0
 14 18  1  0
 18 19  1  0
 19 20  1  0
 19 21  1  0
 17 22  2  0
 15 23  1  0
  8 23  1  0
 23 24  2  0
M  END
>  <cdk:Title>  (119) 
(1S_3AR_5R_7S_7as)-1-[(1S)-1-hydroxyethyl]-4-methylidene-2-oxo-7-(propan-2-yl)-octahydro-1H-inden-5-yl 3-methylbutanoate

>  <1A2>  (119) 
N

>  <2A6>  (119) 
N

>  <2B6>  (119) 
N

>  <2C8>  (119) 
N

>  <2C9>  (119) 
N

>  <2C19>  (119) 
N

>  <2D6>  (119) 
N

>  <2E1>  (119) 
N

>  <3A4>  (119) 
N

>  <Citation>  (119) 
Nucleic Acids Res. 2018. Jan 4;46(D1):D608-17. PMID:29140435
Nucleic Acids Res. 2018 Jan 4;46(D1):D1074-D1082. PMID:29126136
Nucleic Acids Res., 45:D380-388 (2017).  PMID:27924025
Nucleic Acids Res. 2016 Jan 4;44(D1):D1202-13. PMID:26400175

>  <ROMol>  (119) 
<rdkit.Chem.rdchem.Mol object at 0x7c29060efa70>

>  <Drug_like>  (119) 
True

$$$$
(3R)-3-Hydroxy-12'-apo-beta-carotenol
     RDKit          2D

 27 27  0  0  0  0  0  0  0  0999 V2000
    8.2774    2.7587    0.0000 C   0  0  0  0  0  0  0  0  0  0  0  0
    6.9782    3.5085    0.0000 C   0  0  0  0  0  0  0  0  0  0  0  0
    5.6793    2.7583    0.0000 C   0  0  0  0  0  0  0  0  0  0  0  0
    5.6796    1.2583    0.0000 C   0  0  0  0  0  0  0  0  0  0  0  0
    4.3806    0.5081    0.0000 C   0  0  0  0  0  0  0  0  0  0  0  0
    4.3809   -0.9919    0.0000 C   0  0  0  0  0  0  0  0  0  0  0  0
    3.0820   -1.7421    0.0000 C   0  0  0  0  0  0  0  0  0  0  0  0
    3.0822   -3.2421    0.0000 C   0  0  0  0  0  0  0  0  0  0  0  0
    1.7828   -0.9923    0.0000 C   0  0  0  0  0  0  0  0  0  0  0  0
    0.4839   -1.7425    0.0000 O   0  0  0  0  0  0  0  0  0  0  0  0
    6.9780    5.0085    0.0000 C   0  0  0  0  0  0  0  0  0  0  0  0
    8.2769    5.7587    0.0000 C   0  0  0  0  0  0  0  0  0  0  0  0
    8.2767    7.2587    0.0000 C   0  0  0  0  0  0  0  0  0  0  0  0
    9.5756    8.0090    0.0000 C   0  0  0  0  0  0  0  0  0  0  0  0
    9.5753    9.5090    0.0000 C   0  0  0  0  0  0  0  0  0  0  0  0
   10.8747    7.2592    0.0000 C   0  0  0  0  0  0  0  0  0  0  0  0
   12.1737    8.0094    0.0000 C   0  0  0  0  0  0  0  0  0  0  0  0
   13.8886    7.0196    0.0000 C   0  0  0  0  0  0  0  0  0  0  0  0
   13.8890    5.5196    0.0000 C   0  0  0  0  0  0  0  0  0  0  0  0
   12.5904    4.7690    0.0000 C   0  0  0  0  0  0  0  0  0  0  0  0
   15.1893    4.7701    0.0000 C   0  0  0  0  0  0  0  0  0  0  0  0
   16.4790    5.5205    0.0000 C   0  0  0  0  0  0  0  0  0  0  0  0
   16.4786    7.0205    0.0000 C   0  0  0  0  0  0  0  0  0  0  0  0
   15.1883    7.7701    0.0000 C   0  0  0  0  0  0  0  0  0  0  0  0
   14.2252    8.9200    0.0000 C   0  0  0  0  0  0  0  0  0  0  0  0
   17.0822   10.0188    0.0000 C   0  0  0  0  0  0  0  0  0  0  0  0
   17.9559    5.7829    0.0000 O   0  0  0  0  0  0  0  0  0  0  0  0
  1  2  1  0
  2  3  2  0
  3  4  1  0
  4  5  2  0
  5  6  1  0
  6  7  2  0
  7  8  1  0
  7  9  1  0
  9 10  1  0
  2 11  1  0
 11 12  2  0
 12 13  1  0
 13 14  2  0
 14 15  1  0
 14 16  1  0
 16 17  2  0
 17 18  1  0
 18 19  2  0
 19 20  1  0
 19 21  1  0
 21 22  1  0
 22 23  1  0
 23 24  1  0
 18 24  1  0
 24 25  1  0
 24 26  1  0
 22 27  1  0
M  END
>  <cdk:Title>  (120) 
(3R)-3-Hydroxy-12'-apo-beta-carotenol

>  <1A2>  (120) 
N

>  <2A6>  (120) 
N

>  <2B6>  (120) 
N

>  <2C8>  (120) 
N

>  <2C9>  (120) 
N

>  <2C19>  (120) 
N

>  <2D6>  (120) 
N

>  <2E1>  (120) 
N

>  <3A4>  (120) 
N

>  <Citation>  (120) 
Nucleic Acids Res. 2018. Jan 4;46(D1):D608-17. PMID:29140435
Nucleic Acids Res. 2018 Jan 4;46(D1):D1074-D1082. PMID:29126136
Nucleic Acids Res., 45:D380-388 (2017).  PMID:27924025
Nucleic Acids Res. 2016 Jan 4;44(D1):D1202-13. PMID:26400175

>  <ROMol>  (120) 
<rdkit.Chem.rdchem.Mol object at 0x7c29060efae0>

>  <Drug_like>  (120) 
True

$$$$
(1beta_4alpha)-7-(beta-D-Glucopyranosyloxy)-p-menthane-8-ol
     RDKit          2D

 23 24  0  0  0  0  0  0  0  0999 V2000
    8.3788    0.2915    0.0000 C   0  0  0  0  0  0  0  0  0  0  0  0
    7.0035   -2.3070    0.0000 C   0  0  0  0  0  0  0  0  0  0  0  0
    7.5681   -3.6967    0.0000 C   0  0  0  0  0  0  0  0  0  0  0  0
    4.0914   -1.9034    0.0000 C   0  0  0  0  0  0  0  0  0  0  0  0
    2.8219   -1.2045    0.0000 C   0  0  0  0  0  0  0  0  0  0  0  0
    1.5351   -1.9358    0.0000 C   0  0  0  0  0  0  0  0  0  0  0  0
    1.6026   -3.4327    0.0000 C   0  0  0  0  0  0  0  0  0  0  0  0
    2.8721   -4.1315    0.0000 C   0  0  0  0  0  0  0  0  0  0  0  0
    4.1588   -3.4002    0.0000 C   0  0  0  0  0  0  0  0  0  0  0  0
   -1.3096   -3.0290    0.0000 C   0  0  0  0  0  0  0  0  0  0  0  0
   -2.2308   -4.2128    0.0000 O   0  0  0  0  0  0  0  0  0  0  0  0
   -4.1921   -3.9410    0.0000 C   0  0  0  0  0  0  0  0  0  0  0  0
   -4.1407   -5.4301    0.0000 C   0  0  0  0  0  0  0  0  0  0  0  0
   -5.4337   -6.2352    0.0000 C   0  0  0  0  0  0  0  0  0  0  0  0
   -6.7591   -5.5205    0.0000 C   0  0  0  0  0  0  0  0  0  0  0  0
   -6.8105   -4.0314    0.0000 C   0  0  0  0  0  0  0  0  0  0  0  0
   -7.3716   -2.6402    0.0000 C   0  0  0  0  0  0  0  0  0  0  0  0
   -8.8568   -2.4306    0.0000 O   0  0  0  0  0  0  0  0  0  0  0  0
   -5.5372   -3.2369    0.0000 O   0  0  0  0  0  0  0  0  0  0  0  0
   -8.2440   -5.3084    0.0000 O   0  0  0  0  0  0  0  0  0  0  0  0
   -6.3624   -7.4131    0.0000 O   0  0  0  0  0  0  0  0  0  0  0  0
   -3.5804   -6.8215    0.0000 O   0  0  0  0  0  0  0  0  0  0  0  0
    8.4702   -1.9923    0.0000 O   0  0  0  0  0  0  0  0  0  0  0  0
  1  2  1  0
  2  3  1  0
  2  4  1  0
  4  5  1  0
  5  6  1  0
  6  7  1  0
  7  8  1  0
  8  9  1  0
  4  9  1  0
  7 10  1  0
 10 11  1  0
 11 12  1  0
 12 13  1  0
 13 14  1  0
 14 15  1  0
 15 16  1  0
 16 17  1  0
 17 18  1  0
 16 19  1  0
 12 19  1  0
 15 20  1  0
 14 21  1  0
 13 22  1  0
  2 23  1  0
M  END
>  <cdk:Title>  (121) 
(1beta_4alpha)-7-(beta-D-Glucopyranosyloxy)-p-menthane-8-ol

>  <1A2>  (121) 
N

>  <2A6>  (121) 
N

>  <2B6>  (121) 
N

>  <2C8>  (121) 
N

>  <2C9>  (121) 
N

>  <2C19>  (121) 
N

>  <2D6>  (121) 
N

>  <2E1>  (121) 
N

>  <3A4>  (121) 
N

>  <Citation>  (121) 
Nucleic Acids Res. 2018. Jan 4;46(D1):D608-17. PMID:29140435
Nucleic Acids Res. 2018 Jan 4;46(D1):D1074-D1082. PMID:29126136
Nucleic Acids Res., 45:D380-388 (2017).  PMID:27924025
Nucleic Acids Res. 2016 Jan 4;44(D1):D1202-13. PMID:26400175

>  <ROMol>  (121) 
<rdkit.Chem.rdchem.Mol object at 0x7c29060efc30>

>  <Drug_like>  (121) 
True

$$$$
Aldosterone 18-glucuronide
     RDKit          2D

 38 43  0  0  0  0  0  0  0  0999 V2000
    0.5122   -1.5282    0.0000 O   0  0  0  0  0  0  0  0  0  0  0  0
    0.5122   -3.0282    0.0000 C   0  0  0  0  0  0  0  0  0  0  0  0
    0.5122   -4.5282    0.0000 C   0  0  0  0  0  0  0  0  0  0  0  0
    1.8122   -5.2782    0.0000 C   0  0  0  0  0  0  0  0  0  0  0  0
    3.1122   -4.5282    0.0000 C   0  0  0  0  0  0  0  0  0  0  0  0
    3.1122   -3.0282    0.0000 C   0  0  0  0  0  0  0  0  0  0  0  0
    1.8122   -2.2782    0.0000 C   0  0  0  0  0  0  0  0  0  0  0  0
    4.5422   -2.5682    0.0000 C   0  0  0  0  0  0  0  0  0  0  0  0
    5.4222   -3.7782    0.0000 C   0  0  0  0  0  0  0  0  0  0  0  0
    4.5422   -4.9982    0.0000 C   0  0  0  0  0  0  0  0  0  0  0  0
    6.8544   -1.7284    0.0000 C   0  0  0  0  0  0  0  0  0  0  0  0
    7.1159   -0.2513    0.0000 O   0  0  0  0  0  0  0  0  0  0  0  0
    8.0028   -2.6933    0.0000 C   0  0  0  0  0  0  0  0  0  0  0  0
    9.4127   -2.1812    0.0000 O   0  0  0  0  0  0  0  0  0  0  0  0
    3.1122   -1.5282    0.0000 C   0  0  0  0  0  0  0  0  0  0  0  0
    5.5348   -1.1011    0.0000 O   0  0  0  0  0  0  0  0  0  0  0  0
    6.5404    1.6616    0.0000 C   0  0  0  0  0  0  0  0  0  0  0  0
    7.5109    2.8291    0.0000 O   0  0  0  0  0  0  0  0  0  0  0  0
    7.0013    4.2408    0.0000 C   0  0  0  0  0  0  0  0  0  0  0  0
    5.5345    4.5029    0.0000 C   0  0  0  0  0  0  0  0  0  0  0  0
    4.5577    3.3569    0.0000 C   0  0  0  0  0  0  0  0  0  0  0  0
    5.0736    1.9238    0.0000 C   0  0  0  0  0  0  0  0  0  0  0  0
    2.1767    1.4222    0.0000 O   0  0  0  0  0  0  0  0  0  0  0  0
    3.6008    4.5120    0.0000 O   0  0  0  0  0  0  0  0  0  0  0  0
    6.0533    5.9103    0.0000 O   0  0  0  0  0  0  0  0  0  0  0  0
    8.4791    4.4975    0.0000 C   0  0  0  0  0  0  0  0  0  0  0  0
    8.9957    5.9058    0.0000 O   0  0  0  0  0  0  0  0  0  0  0  0
    9.4404    3.3461    0.0000 O   0  0  0  0  0  0  0  0  0  0  0  0
    1.8122   -6.7782    0.0000 C   0  0  0  0  0  0  0  0  0  0  0  0
    0.5122   -7.5282    0.0000 C   0  0  0  0  0  0  0  0  0  0  0  0
   -0.7878   -6.7782    0.0000 C   0  0  0  0  0  0  0  0  0  0  0  0
   -0.7878   -5.2782    0.0000 C   0  0  0  0  0  0  0  0  0  0  0  0
   -2.0878   -4.5282    0.0000 C   0  0  0  0  0  0  0  0  0  0  0  0
   -3.3778   -5.2782    0.0000 C   0  0  0  0  0  0  0  0  0  0  0  0
   -3.3778   -6.7782    0.0000 C   0  0  0  0  0  0  0  0  0  0  0  0
   -4.6780   -7.5263    0.0000 O   0  0  0  0  0  0  0  0  0  0  0  0
   -2.0878   -7.5282    0.0000 C   0  0  0  0  0  0  0  0  0  0  0  0
   -0.4440   -3.3283    0.0000 C   0  0  0  0  0  0  0  0  0  0  0  0
  1  2  1  0
  2  3  1  0
  3  4  1  0
  4  5  1  0
  5  6  1  0
  6  7  1  0
  2  7  1  0
  6  8  1  1
  8  9  1  0
  9 10  1  0
  5 10  1  0
  8 11  1  0
 11 12  2  0
 11 13  1  0
 13 14  1  0
  6 15  1  0
  1 15  1  0
 15 16  1  0
 16 17  1  0
 17 18  1  0
 18 19  1  0
 19 20  1  0
 20 21  1  0
 21 22  1  0
 17 22  1  0
 22 23  1  0
 21 24  1  0
 20 25  1  0
 19 26  1  0
 26 27  1  0
 26 28  2  0
  4 29  1  0
 29 30  1  0
 30 31  1  0
 31 32  1  0
  3 32  1  0
 32 33  1  0
 33 34  1  0
 34 35  1  0
 35 36  2  0
 35 37  1  0
 31 37  2  0
 32 38  1  1
M  END
>  <cdk:Title>  (122) 
Aldosterone 18-glucuronide

>  <1A2>  (122) 
N

>  <2A6>  (122) 
N

>  <2B6>  (122) 
N

>  <2C8>  (122) 
N

>  <2C9>  (122) 
N

>  <2C19>  (122) 
N

>  <2D6>  (122) 
N

>  <2E1>  (122) 
N

>  <3A4>  (122) 
N

>  <Citation>  (122) 
Nucleic Acids Res. 2018. Jan 4;46(D1):D608-17. PMID:29140435
Nucleic Acids Res. 2018 Jan 4;46(D1):D1074-D1082. PMID:29126136
Nucleic Acids Res., 45:D380-388 (2017).  PMID:27924025
Nucleic Acids Res. 2016 Jan 4;44(D1):D1202-13. PMID:26400175

>  <ROMol>  (122) 
<rdkit.Chem.rdchem.Mol object at 0x7c29060efdf0>

>  <Drug_like>  (122) 
True

$$$$
Gravacridonetriol glucoside
     RDKit          2D

 37 41  0  0  0  0  0  0  0  0999 V2000
    9.2765   -2.2070    0.0000 C   0  0  0  0  0  0  0  0  0  0  0  0
    9.8866   -0.8367    0.0000 N   0  0  0  0  0  0  0  0  0  0  0  0
   11.3784   -0.6799    0.0000 C   0  0  0  0  0  0  0  0  0  0  0  0
   12.2601   -1.8934    0.0000 C   0  0  0  0  0  0  0  0  0  0  0  0
   13.7518   -1.7366    0.0000 C   0  0  0  0  0  0  0  0  0  0  0  0
   14.3619   -0.3663    0.0000 C   0  0  0  0  0  0  0  0  0  0  0  0
   13.4803    0.8472    0.0000 C   0  0  0  0  0  0  0  0  0  0  0  0
   11.9885    0.6904    0.0000 C   0  0  0  0  0  0  0  0  0  0  0  0
   11.1068    1.9040    0.0000 C   0  0  0  0  0  0  0  0  0  0  0  0
    9.6150    1.7472    0.0000 C   0  0  0  0  0  0  0  0  0  0  0  0
    8.7333    2.9607    0.0000 C   0  0  0  0  0  0  0  0  0  0  0  0
    7.2416    2.8039    0.0000 C   0  0  0  0  0  0  0  0  0  0  0  0
    6.6315    1.4336    0.0000 C   0  0  0  0  0  0  0  0  0  0  0  0
    7.5131    0.2201    0.0000 C   0  0  0  0  0  0  0  0  0  0  0  0
    6.6315   -0.9935    0.0000 C   0  0  0  0  0  0  0  0  0  0  0  0
    5.2049   -0.5299    0.0000 C   0  0  0  0  0  0  0  0  0  0  0  0
    4.5936   -3.4057    0.0000 C   0  0  0  0  0  0  0  0  0  0  0  0
    6.0927   -3.4580    0.0000 C   0  0  0  0  0  0  0  0  0  0  0  0
    6.8876   -2.1860    0.0000 O   0  0  0  0  0  0  0  0  0  0  0  0
    3.1670   -3.8692    0.0000 C   0  0  0  0  0  0  0  0  0  0  0  0
    2.0523   -2.8655    0.0000 O   0  0  0  0  0  0  0  0  0  0  0  0
    0.1692   -3.4774    0.0000 C   0  0  0  0  0  0  0  0  0  0  0  0
   -0.0415   -2.0024    0.0000 C   0  0  0  0  0  0  0  0  0  0  0  0
   -1.4558   -1.4367    0.0000 C   0  0  0  0  0  0  0  0  0  0  0  0
   -2.6352   -2.3730    0.0000 C   0  0  0  0  0  0  0  0  0  0  0  0
   -2.4244   -3.8480    0.0000 C   0  0  0  0  0  0  0  0  0  0  0  0
   -2.7326   -5.3160    0.0000 C   0  0  0  0  0  0  0  0  0  0  0  0
   -4.1580   -5.7831    0.0000 O   0  0  0  0  0  0  0  0  0  0  0  0
   -1.0314   -4.4066    0.0000 O   0  0  0  0  0  0  0  0  0  0  0  0
   -4.0599   -2.8424    0.0000 O   0  0  0  0  0  0  0  0  0  0  0  0
   -2.5768   -0.4401    0.0000 O   0  0  0  0  0  0  0  0  0  0  0  0
    0.2658   -0.5342    0.0000 O   0  0  0  0  0  0  0  0  0  0  0  0
    4.8692   -5.3664    0.0000 O   0  0  0  0  0  0  0  0  0  0  0  0
    5.2049    0.9701    0.0000 O   0  0  0  0  0  0  0  0  0  0  0  0
    9.0049    0.3769    0.0000 C   0  0  0  0  0  0  0  0  0  0  0  0
    9.3434    4.3310    0.0000 O   0  0  0  0  0  0  0  0  0  0  0  0
   11.7169    3.2743    0.0000 O   0  0  0  0  0  0  0  0  0  0  0  0
  1  2  1  0
  2  3  1  0
  3  4  2  0
  4  5  1  0
  5  6  2  0
  6  7  1  0
  7  8  2  0
  3  8  1  0
  8  9  1  0
  9 10  1  0
 10 11  2  0
 11 12  1  0
 12 13  2  0
 13 14  1  0
 14 15  1  0
 15 16  1  0
 16 17  1  0
 17 18  1  0
 18 19  1  0
 17 20  1  0
 20 21  1  0
 21 22  1  0
 22 23  1  0
 23 24  1  0
 24 25  1  0
 25 26  1  0
 26 27  1  0
 27 28  1  0
 26 29  1  0
 22 29  1  0
 25 30  1  0
 24 31  1  0
 23 32  1  0
 17 33  1  1
 16 34  1  0
 13 34  1  0
 14 35  2  0
 10 35  1  0
  2 35  1  0
 11 36  1  0
  9 37  2  0
M  END
>  <cdk:Title>  (123) 
Gravacridonetriol glucoside

>  <1A2>  (123) 
N

>  <2A6>  (123) 
N

>  <2B6>  (123) 
N

>  <2C8>  (123) 
N

>  <2C9>  (123) 
N

>  <2C19>  (123) 
N

>  <2D6>  (123) 
N

>  <2E1>  (123) 
N

>  <3A4>  (123) 
N

>  <Citation>  (123) 
Nucleic Acids Res. 2018. Jan 4;46(D1):D608-17. PMID:29140435
Nucleic Acids Res. 2018 Jan 4;46(D1):D1074-D1082. PMID:29126136
Nucleic Acids Res., 45:D380-388 (2017).  PMID:27924025
Nucleic Acids Res. 2016 Jan 4;44(D1):D1202-13. PMID:26400175

>  <ROMol>  (123) 
<rdkit.Chem.rdchem.Mol object at 0x7c29060eff40>

>  <Drug_like>  (123) 
True

$$$$
AC1LB0dO
     RDKit          2D

 31 32  0  0  0  0  0  0  0  0999 V2000
    9.0903   -3.6678    0.0000 C   0  0  0  0  0  0  0  0  0  0  0  0
    7.6114   -3.4168    0.0000 O   0  0  0  0  0  0  0  0  0  0  0  0
    7.0894   -2.0106    0.0000 C   0  0  0  0  0  0  0  0  0  0  0  0
    7.0726   -0.4925    0.0000 O   0  0  0  0  0  0  0  0  0  0  0  0
    5.7701    0.2530    0.0000 C   0  0  0  0  0  0  0  0  0  0  0  0
    6.7297    1.4058    0.0000 C   0  0  0  0  0  0  0  0  0  0  0  0
    8.2080    1.1511    0.0000 O   0  0  0  0  0  0  0  0  0  0  0  0
    9.1677    2.3039    0.0000 C   0  0  0  0  0  0  0  0  0  0  0  0
    4.4827   -0.4973    0.0000 C   0  0  0  0  0  0  0  0  0  0  0  0
    3.4709    2.2631    0.0000 O   0  0  0  0  0  0  0  0  0  0  0  0
    1.9930    2.5202    0.0000 C   0  0  0  0  0  0  0  0  0  0  0  0
    0.4973    2.2600    0.0000 O   0  0  0  0  0  0  0  0  0  0  0  0
   -0.4730    3.4049    0.0000 C   0  0  0  0  0  0  0  0  0  0  0  0
   -1.4317    2.2512    0.0000 C   0  0  0  0  0  0  0  0  0  0  0  0
   -2.9101    2.5046    0.0000 O   0  0  0  0  0  0  0  0  0  0  0  0
   -3.4299    3.9116    0.0000 C   0  0  0  0  0  0  0  0  0  0  0  0
    0.0301    4.8074    0.0000 C   0  0  0  0  0  0  0  0  0  0  0  0
   -1.4487    5.0584    0.0000 O   0  0  0  0  0  0  0  0  0  0  0  0
   -1.9708    6.4646    0.0000 C   0  0  0  0  0  0  0  0  0  0  0  0
    1.5104    5.0837    0.0000 C   0  0  0  0  0  0  0  0  0  0  0  0
    0.9852    6.4888    0.0000 O   0  0  0  0  0  0  0  0  0  0  0  0
    1.9395    7.6461    0.0000 C   0  0  0  0  0  0  0  0  0  0  0  0
    2.4962    3.9226    0.0000 C   0  0  0  0  0  0  0  0  0  0  0  0
    3.4542    5.0769    0.0000 O   0  0  0  0  0  0  0  0  0  0  0  0
    4.9328    4.8244    0.0000 C   0  0  0  0  0  0  0  0  0  0  0  0
    4.4808   -2.0031    0.0000 C   0  0  0  0  0  0  0  0  0  0  0  0
    3.0035   -1.7428    0.0000 O   0  0  0  0  0  0  0  0  0  0  0  0
    2.0394   -2.8920    0.0000 C   0  0  0  0  0  0  0  0  0  0  0  0
    5.8021   -2.7609    0.0000 C   0  0  0  0  0  0  0  0  0  0  0  0
    4.8417   -3.9131    0.0000 O   0  0  0  0  0  0  0  0  0  0  0  0
    5.3594   -5.3210    0.0000 C   0  0  0  0  0  0  0  0  0  0  0  0
  1  2  1  0
  2  3  1  0
  3  4  1  0
  4  5  1  0
  5  6  1  0
  6  7  1  0
  7  8  1  0
  5  9  1  0
  9 10  1  0
 10 11  1  0
 11 12  1  0
 12 13  1  0
 13 14  1  0
 14 15  1  0
 15 16  1  0
 13 17  1  0
 17 18  1  0
 18 19  1  0
 17 20  1  0
 20 21  1  0
 21 22  1  0
 20 23  1  0
 11 23  1  0
 23 24  1  0
 24 25  1  0
  9 26  1  0
 26 27  1  0
 27 28  1  0
 26 29  1  0
  3 29  1  0
 29 30  1  0
 30 31  1  0
M  END
>  <cdk:Title>  (124) 
AC1LB0dO

>  <1A2>  (124) 
N

>  <2A6>  (124) 
N

>  <2B6>  (124) 
N

>  <2C8>  (124) 
N

>  <2C9>  (124) 
N

>  <2C19>  (124) 
N

>  <2D6>  (124) 
N

>  <2E1>  (124) 
N

>  <3A4>  (124) 
N

>  <Citation>  (124) 
Nucleic Acids Res. 2018. Jan 4;46(D1):D608-17. PMID:29140435
Nucleic Acids Res. 2018 Jan 4;46(D1):D1074-D1082. PMID:29126136
Nucleic Acids Res., 45:D380-388 (2017).  PMID:27924025
Nucleic Acids Res. 2016 Jan 4;44(D1):D1202-13. PMID:26400175

>  <ROMol>  (124) 
<rdkit.Chem.rdchem.Mol object at 0x7c29061240b0>

>  <Drug_like>  (124) 
True

$$$$
(6alpha_22E)-6-Hydroxy-4_7_22-ergostatrien-3-one
     RDKit          2D

 30 33  0  0  0  0  0  0  0  0999 V2000
   12.8446   -2.3629    0.0000 C   0  0  0  0  0  0  0  0  0  0  0  0
   13.3560   -3.7731    0.0000 C   0  0  0  0  0  0  0  0  0  0  0  0
   14.3189   -4.9232    0.0000 C   0  0  0  0  0  0  0  0  0  0  0  0
   10.9329   -4.1974    0.0000 C   0  0  0  0  0  0  0  0  0  0  0  0
   11.4443   -5.6076    0.0000 C   0  0  0  0  0  0  0  0  0  0  0  0
    9.9700   -3.0472    0.0000 C   0  0  0  0  0  0  0  0  0  0  0  0
    8.4925   -3.3060    0.0000 C   0  0  0  0  0  0  0  0  0  0  0  0
    6.9135   -1.4197    0.0000 C   0  0  0  0  0  0  0  0  0  0  0  0
    6.4021   -0.0096    0.0000 C   0  0  0  0  0  0  0  0  0  0  0  0
    4.0175   -1.9269    0.0000 C   0  0  0  0  0  0  0  0  0  0  0  0
    4.8975   -3.1469    0.0000 C   0  0  0  0  0  0  0  0  0  0  0  0
    4.0175   -4.3569    0.0000 C   0  0  0  0  0  0  0  0  0  0  0  0
    2.5875   -3.8969    0.0000 C   0  0  0  0  0  0  0  0  0  0  0  0
    1.2875   -4.6469    0.0000 C   0  0  0  0  0  0  0  0  0  0  0  0
    1.2875   -6.1469    0.0000 C   0  0  0  0  0  0  0  0  0  0  0  0
   -0.0125   -6.8969    0.0000 C   0  0  0  0  0  0  0  0  0  0  0  0
   -1.3125   -6.1469    0.0000 C   0  0  0  0  0  0  0  0  0  0  0  0
   -2.6125   -6.8969    0.0000 C   0  0  0  0  0  0  0  0  0  0  0  0
   -3.9125   -6.1469    0.0000 C   0  0  0  0  0  0  0  0  0  0  0  0
   -3.9125   -4.6469    0.0000 C   0  0  0  0  0  0  0  0  0  0  0  0
   -2.6125   -3.8969    0.0000 C   0  0  0  0  0  0  0  0  0  0  0  0
   -1.3125   -4.6469    0.0000 C   0  0  0  0  0  0  0  0  0  0  0  0
   -0.9686   -2.6970    0.0000 C   0  0  0  0  0  0  0  0  0  0  0  0
   -0.0125   -3.8969    0.0000 C   0  0  0  0  0  0  0  0  0  0  0  0
   -0.0125   -2.3969    0.0000 C   0  0  0  0  0  0  0  0  0  0  0  0
    1.2875   -1.6469    0.0000 C   0  0  0  0  0  0  0  0  0  0  0  0
    2.5875   -2.3969    0.0000 C   0  0  0  0  0  0  0  0  0  0  0  0
    2.8894    0.5276    0.0000 C   0  0  0  0  0  0  0  0  0  0  0  0
   -5.2114   -6.8971    0.0000 O   0  0  0  0  0  0  0  0  0  0  0  0
   -0.9765   -8.0461    0.0000 O   0  0  0  0  0  0  0  0  0  0  0  0
  1  2  1  0
  2  3  1  0
  2  4  1  0
  4  5  1  0
  4  6  1  0
  6  7  2  0
  7  8  1  0
  8  9  1  0
  8 10  1  0
 10 11  1  0
 11 12  1  0
 12 13  1  0
 13 14  1  0
 14 15  2  0
 15 16  1  0
 16 17  1  0
 17 18  2  0
 18 19  1  0
 19 20  1  0
 20 21  1  0
 21 22  1  0
 17 22  1  0
 22 23  1  6
 22 24  1  0
 14 24  1  0
 24 25  1  0
 25 26  1  0
 26 27  1  0
 10 27  1  0
 13 27  1  0
 27 28  1  6
 19 29  2  0
 16 30  1  0
M  END
>  <cdk:Title>  (125) 
(6alpha_22E)-6-Hydroxy-4_7_22-ergostatrien-3-one

>  <1A2>  (125) 
N

>  <2A6>  (125) 
N

>  <2B6>  (125) 
N

>  <2C8>  (125) 
N

>  <2C9>  (125) 
N

>  <2C19>  (125) 
N

>  <2D6>  (125) 
N

>  <2E1>  (125) 
N

>  <3A4>  (125) 
N

>  <Citation>  (125) 
Nucleic Acids Res. 2018. Jan 4;46(D1):D608-17. PMID:29140435
Nucleic Acids Res. 2018 Jan 4;46(D1):D1074-D1082. PMID:29126136
Nucleic Acids Res., 45:D380-388 (2017).  PMID:27924025
Nucleic Acids Res. 2016 Jan 4;44(D1):D1202-13. PMID:26400175

>  <ROMol>  (125) 
<rdkit.Chem.rdchem.Mol object at 0x7c2906124120>

>  <Drug_like>  (125) 
True

$$$$
CARP toxin
     RDKit          2D

 36 39  0  0  0  0  0  0  0  0999 V2000
    5.4396   -0.1591    0.0000 C   0  0  0  0  0  0  0  0  0  0  0  0
    6.4419   -2.9230    0.0000 C   0  0  0  0  0  0  0  0  0  0  0  0
    8.5709   -4.1554    0.0000 C   0  0  0  0  0  0  0  0  0  0  0  0
   10.2868   -3.1674    0.0000 C   0  0  0  0  0  0  0  0  0  0  0  0
   12.4158   -4.3999    0.0000 C   0  0  0  0  0  0  0  0  0  0  0  0
   14.5476   -3.1723    0.0000 C   0  0  0  0  0  0  0  0  0  0  0  0
   13.5848   -2.0222    0.0000 C   0  0  0  0  0  0  0  0  0  0  0  0
   14.0994   -0.6132    0.0000 O   0  0  0  0  0  0  0  0  0  0  0  0
   15.8458   -3.9238    0.0000 C   0  0  0  0  0  0  0  0  0  0  0  0
   17.1457   -3.1753    0.0000 O   0  0  0  0  0  0  0  0  0  0  0  0
   18.4439   -3.9269    0.0000 S   0  0  0  0  0  0  0  0  0  0  0  0
   18.4421   -5.4269    0.0000 O   0  0  0  0  0  0  0  0  0  0  0  0
   19.9208   -4.1890    0.0000 O   0  0  0  0  0  0  0  0  0  0  0  0
   18.9585   -2.5179    0.0000 O   0  0  0  0  0  0  0  0  0  0  0  0
    3.8941   -4.3900    0.0000 C   0  0  0  0  0  0  0  0  0  0  0  0
    4.7741   -5.6100    0.0000 C   0  0  0  0  0  0  0  0  0  0  0  0
    3.8941   -6.8200    0.0000 C   0  0  0  0  0  0  0  0  0  0  0  0
    2.4641   -6.3600    0.0000 C   0  0  0  0  0  0  0  0  0  0  0  0
    1.1741   -7.1100    0.0000 C   0  0  0  0  0  0  0  0  0  0  0  0
   -0.1259   -6.3600    0.0000 C   0  0  0  0  0  0  0  0  0  0  0  0
   -0.1259   -4.8600    0.0000 C   0  0  0  0  0  0  0  0  0  0  0  0
    1.1741   -4.1100    0.0000 C   0  0  0  0  0  0  0  0  0  0  0  0
    2.1407   -2.9630    0.0000 O   0  0  0  0  0  0  0  0  0  0  0  0
    2.4641   -4.8600    0.0000 C   0  0  0  0  0  0  0  0  0  0  0  0
    2.7709   -1.9361    0.0000 C   0  0  0  0  0  0  0  0  0  0  0  0
   -1.4259   -7.1100    0.0000 C   0  0  0  0  0  0  0  0  0  0  0  0
   -2.7259   -6.3600    0.0000 C   0  0  0  0  0  0  0  0  0  0  0  0
   -4.0259   -7.1100    0.0000 C   0  0  0  0  0  0  0  0  0  0  0  0
   -4.0259   -8.6100    0.0000 C   0  0  0  0  0  0  0  0  0  0  0  0
   -2.7259   -9.3600    0.0000 C   0  0  0  0  0  0  0  0  0  0  0  0
   -1.4259   -8.6100    0.0000 C   0  0  0  0  0  0  0  0  0  0  0  0
   -0.1259   -9.3600    0.0000 C   0  0  0  0  0  0  0  0  0  0  0  0
    1.1741   -8.6100    0.0000 C   0  0  0  0  0  0  0  0  0  0  0  0
    1.6868  -10.0196    0.0000 O   0  0  0  0  0  0  0  0  0  0  0  0
   -5.5031   -8.3497    0.0000 O   0  0  0  0  0  0  0  0  0  0  0  0
   -1.0821   -5.1601    0.0000 C   0  0  0  0  0  0  0  0  0  0  0  0
  1  2  1  0
  2  3  1  0
  3  4  1  0
  4  5  1  0
  5  6  1  0
  6  7  1  0
  7  8  1  0
  6  9  1  0
  9 10  1  0
 10 11  1  0
 11 12  1  0
 11 13  2  0
 11 14  2  0
  2 15  1  0
 15 16  1  0
 16 17  1  0
 17 18  1  0
 18 19  1  0
 19 20  1  0
 20 21  1  0
 21 22  1  0
 22 23  1  0
 22 24  1  0
 15 24  1  0
 18 24  1  0
 24 25  1  1
 20 26  1  0
 26 27  1  0
 27 28  1  0
 28 29  1  0
 29 30  1  0
 30 31  1  0
 26 31  1  0
 31 32  1  0
 32 33  1  0
 19 33  1  0
 33 34  1  0
 29 35  1  0
 26 36  1  1
M  END
>  <cdk:Title>  (126) 
CARP toxin

>  <1A2>  (126) 
N

>  <2A6>  (126) 
N

>  <2B6>  (126) 
N

>  <2C8>  (126) 
N

>  <2C9>  (126) 
N

>  <2C19>  (126) 
N

>  <2D6>  (126) 
N

>  <2E1>  (126) 
N

>  <3A4>  (126) 
N

>  <Citation>  (126) 
Nucleic Acids Res. 2018. Jan 4;46(D1):D608-17. PMID:29140435
Nucleic Acids Res. 2018 Jan 4;46(D1):D1074-D1082. PMID:29126136
Nucleic Acids Res., 45:D380-388 (2017).  PMID:27924025
Nucleic Acids Res. 2016 Jan 4;44(D1):D1202-13. PMID:26400175

>  <ROMol>  (126) 
<rdkit.Chem.rdchem.Mol object at 0x7c2906124270>

>  <Drug_like>  (126) 
True

$$$$
(2S_3R_6R_8S_11R_17R_18R)-18-(Furan-3-yl)-2_11-dihydroxy-3_9_9_17-tetramethyl-4_
     RDKit          2D

 35 41  0  0  0  0  0  0  0  0999 V2000
    4.7330   -6.6325    0.0000 C   0  0  0  0  0  0  0  0  0  0  0  0
    4.2200   -5.2230    0.0000 C   0  0  0  0  0  0  0  0  0  0  0  0
    7.1153   -4.7125    0.0000 C   0  0  0  0  0  0  0  0  0  0  0  0
    2.9209   -5.9730    0.0000 C   0  0  0  0  0  0  0  0  0  0  0  0
    1.6219   -5.2230    0.0000 C   0  0  0  0  0  0  0  0  0  0  0  0
    0.3219   -5.9730    0.0000 C   0  0  0  0  0  0  0  0  0  0  0  0
   -0.9781   -5.2230    0.0000 C   0  0  0  0  0  0  0  0  0  0  0  0
   -2.2781   -5.9730    0.0000 C   0  0  0  0  0  0  0  0  0  0  0  0
   -3.5781   -5.2230    0.0000 C   0  0  0  0  0  0  0  0  0  0  0  0
   -3.5781   -3.7230    0.0000 C   0  0  0  0  0  0  0  0  0  0  0  0
   -2.2781   -2.9730    0.0000 C   0  0  0  0  0  0  0  0  0  0  0  0
   -4.8240   -1.5026    0.0000 C   0  0  0  0  0  0  0  0  0  0  0  0
   -0.9781   -3.7230    0.0000 C   0  0  0  0  0  0  0  0  0  0  0  0
    0.3219   -2.9730    0.0000 C   0  0  0  0  0  0  0  0  0  0  0  0
    0.3219   -1.4730    0.0000 C   0  0  0  0  0  0  0  0  0  0  0  0
    2.4521   -0.2426    0.0000 O   0  0  0  0  0  0  0  0  0  0  0  0
   -0.9781   -0.7230    0.0000 O   0  0  0  0  0  0  0  0  0  0  0  0
   -2.2781   -1.4730    0.0000 C   0  0  0  0  0  0  0  0  0  0  0  0
   -3.2831    1.2899    0.0000 C   0  0  0  0  0  0  0  0  0  0  0  0
   -2.4480    2.5118    0.0000 C   0  0  0  0  0  0  0  0  0  0  0  0
   -3.3495    3.7093    0.0000 C   0  0  0  0  0  0  0  0  0  0  0  0
   -4.7700    3.1904    0.0000 O   0  0  0  0  0  0  0  0  0  0  0  0
   -4.7263    1.6949    0.0000 C   0  0  0  0  0  0  0  0  0  0  0  0
    1.6219   -3.7230    0.0000 C   0  0  0  0  0  0  0  0  0  0  0  0
    2.9209   -2.9730    0.0000 C   0  0  0  0  0  0  0  0  0  0  0  0
    1.7251   -0.2872    0.0000 C   0  0  0  0  0  0  0  0  0  0  0  0
    4.2200   -3.7230    0.0000 C   0  0  0  0  0  0  0  0  0  0  0  0
    5.3347   -2.7193    0.0000 C   0  0  0  0  0  0  0  0  0  0  0  0
    4.7246   -1.3490    0.0000 C   0  0  0  0  0  0  0  0  0  0  0  0
    5.4746   -0.0499    0.0000 O   0  0  0  0  0  0  0  0  0  0  0  0
    3.2328   -1.5058    0.0000 O   0  0  0  0  0  0  0  0  0  0  0  0
    5.6466   -4.1865    0.0000 O   0  0  0  0  0  0  0  0  0  0  0  0
    1.6216   -1.7430    0.0000 O   0  0  0  0  0  0  0  0  0  0  0  0
    1.6214   -8.1630    0.0000 O   0  0  0  0  0  0  0  0  0  0  0  0
    2.9209   -7.4730    0.0000 O   0  0  0  0  0  0  0  0  0  0  0  0
  1  2  1  0
  2  3  1  0
  2  4  1  0
  4  5  1  0
  5  6  1  0
  6  7  1  0
  7  8  2  0
  8  9  1  0
  9 10  1  0
 10 11  1  0
 11 12  1  1
 11 13  1  0
  7 13  1  0
 13 14  2  0
 14 15  1  0
 15 16  2  0
 15 17  1  0
 17 18  1  0
 11 18  1  0
 18 19  1  0
 19 20  1  0
 20 21  2  0
 21 22  1  0
 22 23  1  0
 19 23  2  0
 14 24  1  0
  5 24  1  0
 24 25  1  0
 25 26  1  6
 25 27  1  0
  2 27  1  0
 27 28  1  0
 28 29  1  0
 29 30  2  0
 29 31  1  0
 25 31  1  0
 28 32  1  0
 27 32  1  6
 24 33  1  1
  5 34  1  6
  4 35  2  0
M  END
>  <cdk:Title>  (127) 
(2S_3R_6R_8S_11R_17R_18R)-18-(Furan-3-yl)-2_11-dihydroxy-3_9_9_17-tetramethyl-4_7_19-trioxahexacyclo[11.7.1.0??_????.0??_???.0???_???.0?????_????]henicosa-1(21)_13-diene-5_10_20-trione

>  <1A2>  (127) 
N

>  <2A6>  (127) 
N

>  <2B6>  (127) 
N

>  <2C8>  (127) 
N

>  <2C9>  (127) 
N

>  <2C19>  (127) 
N

>  <2D6>  (127) 
N

>  <2E1>  (127) 
N

>  <3A4>  (127) 
N

>  <Citation>  (127) 
Nucleic Acids Res. 2018. Jan 4;46(D1):D608-17. PMID:29140435
Nucleic Acids Res. 2018 Jan 4;46(D1):D1074-D1082. PMID:29126136
Nucleic Acids Res., 45:D380-388 (2017).  PMID:27924025
Nucleic Acids Res. 2016 Jan 4;44(D1):D1202-13. PMID:26400175

>  <ROMol>  (127) 
<rdkit.Chem.rdchem.Mol object at 0x7c2906124350>

>  <Drug_like>  (127) 
True

$$$$
(23S_24S)-17_23-Epoxy-24_29-dihydroxy-27-norlanost-8-ene-3_15-dione
     RDKit          2D

 34 38  0  0  0  0  0  0  0  0999 V2000
    9.3265   -5.1754    0.0000 C   0  0  0  0  0  0  0  0  0  0  0  0
    8.7164   -3.8050    0.0000 C   0  0  0  0  0  0  0  0  0  0  0  0
    7.2246   -3.6482    0.0000 C   0  0  0  0  0  0  0  0  0  0  0  0
    6.6145   -2.2779    0.0000 C   0  0  0  0  0  0  0  0  0  0  0  0
    6.3027   -0.8107    0.0000 C   0  0  0  0  0  0  0  0  0  0  0  0
    4.8109   -0.6539    0.0000 C   0  0  0  0  0  0  0  0  0  0  0  0
    6.7781    1.5309    0.0000 C   0  0  0  0  0  0  0  0  0  0  0  0
    4.2008   -2.0242    0.0000 C   0  0  0  0  0  0  0  0  0  0  0  0
    3.5907   -3.3946    0.0000 C   0  0  0  0  0  0  0  0  0  0  0  0
    2.0989   -3.2378    0.0000 C   0  0  0  0  0  0  0  0  0  0  0  0
    1.7870   -1.7705    0.0000 C   0  0  0  0  0  0  0  0  0  0  0  0
   -0.5915   -3.4986    0.0000 C   0  0  0  0  0  0  0  0  0  0  0  0
    0.4880   -1.0205    0.0000 C   0  0  0  0  0  0  0  0  0  0  0  0
   -0.8111   -1.7705    0.0000 C   0  0  0  0  0  0  0  0  0  0  0  0
   -2.1101   -1.0205    0.0000 C   0  0  0  0  0  0  0  0  0  0  0  0
   -2.1101    0.4795    0.0000 C   0  0  0  0  0  0  0  0  0  0  0  0
   -0.8111    1.2295    0.0000 C   0  0  0  0  0  0  0  0  0  0  0  0
    1.7351    2.6995    0.0000 C   0  0  0  0  0  0  0  0  0  0  0  0
   -0.8111    2.7295    0.0000 C   0  0  0  0  0  0  0  0  0  0  0  0
   -2.1101    3.4795    0.0000 C   0  0  0  0  0  0  0  0  0  0  0  0
   -3.4091    2.7295    0.0000 C   0  0  0  0  0  0  0  0  0  0  0  0
   -3.4091    1.2295    0.0000 C   0  0  0  0  0  0  0  0  0  0  0  0
   -6.3045    1.7400    0.0000 C   0  0  0  0  0  0  0  0  0  0  0  0
   -4.2505   -1.0822    0.0000 C   0  0  0  0  0  0  0  0  0  0  0  0
   -5.7277   -1.3427    0.0000 O   0  0  0  0  0  0  0  0  0  0  0  0
   -4.7082    3.4795    0.0000 O   0  0  0  0  0  0  0  0  0  0  0  0
    0.4880    0.4795    0.0000 C   0  0  0  0  0  0  0  0  0  0  0  0
    1.7870    1.2295    0.0000 C   0  0  0  0  0  0  0  0  0  0  0  0
    3.0861    0.4795    0.0000 C   0  0  0  0  0  0  0  0  0  0  0  0
    3.0861   -1.0205    0.0000 C   0  0  0  0  0  0  0  0  0  0  0  0
    5.3334   -0.0200    0.0000 C   0  0  0  0  0  0  0  0  0  0  0  0
    1.0952   -4.3525    0.0000 O   0  0  0  0  0  0  0  0  0  0  0  0
    5.3155   -3.0279    0.0000 O   0  0  0  0  0  0  0  0  0  0  0  0
    5.7692   -4.0111    0.0000 O   0  0  0  0  0  0  0  0  0  0  0  0
  1  2  1  0
  2  3  1  0
  3  4  1  0
  4  5  1  0
  5  6  1  0
  6  7  1  0
  6  8  1  0
  8  9  1  1
  9 10  1  0
 10 11  1  0
 11 12  1  6
 11 13  1  0
 13 14  1  0
 14 15  1  0
 15 16  1  0
 16 17  1  0
 17 18  1  1
 17 19  1  0
 19 20  1  0
 20 21  1  0
 21 22  1  0
 16 22  1  0
 22 23  1  6
 22 24  1  0
 24 25  1  0
 21 26  2  0
 17 27  1  0
 13 27  2  0
 27 28  1  0
 28 29  1  0
 29 30  1  0
 11 30  1  0
  8 30  1  0
 30 31  1  6
 10 32  2  0
  8 33  1  0
  4 33  1  0
  3 34  1  0
M  END
>  <cdk:Title>  (128) 
(23S_24S)-17_23-Epoxy-24_29-dihydroxy-27-norlanost-8-ene-3_15-dione

>  <1A2>  (128) 
N

>  <2A6>  (128) 
N

>  <2B6>  (128) 
N

>  <2C8>  (128) 
N

>  <2C9>  (128) 
N

>  <2C19>  (128) 
N

>  <2D6>  (128) 
N

>  <2E1>  (128) 
N

>  <3A4>  (128) 
N

>  <Citation>  (128) 
Nucleic Acids Res. 2018. Jan 4;46(D1):D608-17. PMID:29140435
Nucleic Acids Res. 2018 Jan 4;46(D1):D1074-D1082. PMID:29126136
Nucleic Acids Res., 45:D380-388 (2017).  PMID:27924025
Nucleic Acids Res. 2016 Jan 4;44(D1):D1202-13. PMID:26400175

>  <ROMol>  (128) 
<rdkit.Chem.rdchem.Mol object at 0x7c29061243c0>

>  <Drug_like>  (128) 
True

$$$$
Deoxycholic acid 3-glucuronide
     RDKit          2D

 40 44  0  0  0  0  0  0  0  0999 V2000
   -7.7925    1.9525    0.0000 C   0  0  0  0  0  0  0  0  0  0  0  0
   -8.3051    0.5419    0.0000 C   0  0  0  0  0  0  0  0  0  0  0  0
   -9.7823    0.2811    0.0000 C   0  0  0  0  0  0  0  0  0  0  0  0
  -10.7468    1.4309    0.0000 C   0  0  0  0  0  0  0  0  0  0  0  0
  -10.2325    2.8317    0.0000 C   0  0  0  0  0  0  0  0  0  0  0  0
  -11.1971    3.9815    0.0000 C   0  0  0  0  0  0  0  0  0  0  0  0
  -10.6846    5.3921    0.0000 C   0  0  0  0  0  0  0  0  0  0  0  0
   -9.2074    5.6528    0.0000 C   0  0  0  0  0  0  0  0  0  0  0  0
   -8.6949    7.0634    0.0000 C   0  0  0  0  0  0  0  0  0  0  0  0
   -9.3965    8.3917    0.0000 C   0  0  0  0  0  0  0  0  0  0  0  0
   -8.3579    9.4687    0.0000 C   0  0  0  0  0  0  0  0  0  0  0  0
   -7.0035    8.8142    0.0000 C   0  0  0  0  0  0  0  0  0  0  0  0
   -6.0017   11.5782    0.0000 C   0  0  0  0  0  0  0  0  0  0  0  0
   -7.2765   13.0933    0.0000 C   0  0  0  0  0  0  0  0  0  0  0  0
   -6.7654   14.5035    0.0000 C   0  0  0  0  0  0  0  0  0  0  0  0
   -7.7312   15.6512    0.0000 C   0  0  0  0  0  0  0  0  0  0  0  0
   -9.2080   15.3887    0.0000 O   0  0  0  0  0  0  0  0  0  0  0  0
   -7.2201   17.0615    0.0000 O   0  0  0  0  0  0  0  0  0  0  0  0
   -3.4536   10.1117    0.0000 C   0  0  0  0  0  0  0  0  0  0  0  0
   -7.2177    7.3242    0.0000 C   0  0  0  0  0  0  0  0  0  0  0  0
   -5.7751    7.7353    0.0000 C   0  0  0  0  0  0  0  0  0  0  0  0
   -6.2531    6.1744    0.0000 C   0  0  0  0  0  0  0  0  0  0  0  0
   -5.2891    7.3236    0.0000 O   0  0  0  0  0  0  0  0  0  0  0  0
   -6.7657    4.7638    0.0000 C   0  0  0  0  0  0  0  0  0  0  0  0
   -8.2428    4.5030    0.0000 C   0  0  0  0  0  0  0  0  0  0  0  0
   -8.7554    3.0924    0.0000 C   0  0  0  0  0  0  0  0  0  0  0  0
   -5.8591    2.5874    0.0000 C   0  0  0  0  0  0  0  0  0  0  0  0
   -8.7764   -2.4815    0.0000 O   0  0  0  0  0  0  0  0  0  0  0  0
   -9.7405   -3.6307    0.0000 C   0  0  0  0  0  0  0  0  0  0  0  0
   -8.4517   -4.3785    0.0000 C   0  0  0  0  0  0  0  0  0  0  0  0
   -6.9753   -4.6434    0.0000 O   0  0  0  0  0  0  0  0  0  0  0  0
   -8.4569   -5.9016    0.0000 C   0  0  0  0  0  0  0  0  0  0  0  0
   -7.9526   -7.3143    0.0000 O   0  0  0  0  0  0  0  0  0  0  0  0
   -9.7667   -6.6446    0.0000 C   0  0  0  0  0  0  0  0  0  0  0  0
  -10.7355   -7.7898    0.0000 O   0  0  0  0  0  0  0  0  0  0  0  0
  -11.0555   -5.8968    0.0000 C   0  0  0  0  0  0  0  0  0  0  0  0
  -11.0517   -4.3959    0.0000 O   0  0  0  0  0  0  0  0  0  0  0  0
  -12.5320   -5.6327    0.0000 C   0  0  0  0  0  0  0  0  0  0  0  0
  -13.0417   -4.2220    0.0000 O   0  0  0  0  0  0  0  0  0  0  0  0
  -13.4990   -6.7795    0.0000 O   0  0  0  0  0  0  0  0  0  0  0  0
  1  2  1  0
  2  3  1  0
  3  4  1  0
  4  5  1  0
  5  6  1  0
  6  7  1  0
  7  8  1  0
  8  9  1  0
  9 10  1  0
 10 11  1  0
 11 12  1  0
 12 13  1  0
 13 14  1  0
 14 15  1  0
 15 16  1  0
 16 17  2  0
 16 18  1  0
 13 19  1  0
 12 20  1  0
  9 20  1  0
 20 21  1  1
 20 22  1  0
 22 23  1  0
 22 24  1  0
 24 25  1  0
  8 25  1  0
 25 26  1  0
  1 26  1  0
  5 26  1  0
 26 27  1  1
  3 28  1  0
 28 29  1  0
 29 30  1  0
 30 31  1  0
 30 32  1  0
 32 33  1  0
 32 34  1  0
 34 35  1  0
 34 36  1  0
 36 37  1  0
 29 37  1  0
 36 38  1  0
 38 39  2  0
 38 40  1  0
M  END
>  <cdk:Title>  (129) 
Deoxycholic acid 3-glucuronide

>  <1A2>  (129) 
N

>  <2A6>  (129) 
N

>  <2B6>  (129) 
N

>  <2C8>  (129) 
N

>  <2C9>  (129) 
N

>  <2C19>  (129) 
N

>  <2D6>  (129) 
N

>  <2E1>  (129) 
N

>  <3A4>  (129) 
N

>  <Citation>  (129) 
Nucleic Acids Res. 2018. Jan 4;46(D1):D608-17. PMID:29140435
Nucleic Acids Res. 2018 Jan 4;46(D1):D1074-D1082. PMID:29126136
Nucleic Acids Res., 45:D380-388 (2017).  PMID:27924025
Nucleic Acids Res. 2016 Jan 4;44(D1):D1202-13. PMID:26400175

>  <ROMol>  (129) 
<rdkit.Chem.rdchem.Mol object at 0x7c2906124430>

>  <Drug_like>  (129) 
True

$$$$
Leu-glu
     RDKit          2D

 18 17  0  0  0  0  0  0  0  0999 V2000
    7.7942    4.5000    0.0000 C   0  0  0  0  0  0  0  0  0  0  0  0
    6.4952    3.7500    0.0000 C   0  0  0  0  0  0  0  0  0  0  0  0
    5.1962    4.5000    0.0000 C   0  0  0  0  0  0  0  0  0  0  0  0
    5.1962    6.0000    0.0000 O   0  0  0  0  0  0  0  0  0  0  0  0
    3.8971    3.7500    0.0000 O   0  0  0  0  0  0  0  0  0  0  0  0
    9.0933    3.7500    0.0000 C   0  0  0  0  0  0  0  0  0  0  0  0
    9.7705    5.6106    0.0000 C   0  0  0  0  0  0  0  0  0  0  0  0
    8.8063    6.7597    0.0000 O   0  0  0  0  0  0  0  0  0  0  0  0
   11.2477    5.8711    0.0000 O   0  0  0  0  0  0  0  0  0  0  0  0
    9.0933    2.2500    0.0000 N   0  0  0  0  0  0  0  0  0  0  0  0
   10.3923    1.5000    0.0000 C   0  0  0  0  0  0  0  0  0  0  0  0
   11.6913    2.2500    0.0000 O   0  0  0  0  0  0  0  0  0  0  0  0
   10.3923   -0.0000    0.0000 C   0  0  0  0  0  0  0  0  0  0  0  0
    9.7151   -1.8606    0.0000 N   0  0  0  0  0  0  0  0  0  0  0  0
   11.6913   -0.7500    0.0000 C   0  0  0  0  0  0  0  0  0  0  0  0
   13.4061    0.2400    0.0000 C   0  0  0  0  0  0  0  0  0  0  0  0
   14.7051   -0.5100    0.0000 C   0  0  0  0  0  0  0  0  0  0  0  0
   14.3703    1.3891    0.0000 C   0  0  0  0  0  0  0  0  0  0  0  0
  1  2  1  0
  2  3  1  0
  3  4  2  0
  3  5  1  0
  1  6  1  0
  6  7  1  0
  7  8  2  0
  7  9  1  0
  6 10  1  0
 10 11  1  0
 11 12  2  0
 11 13  1  0
 13 14  1  0
 13 15  1  0
 15 16  1  0
 16 17  1  0
 16 18  1  0
M  CHG  1   9  -1
M  END
>  <cdk:Title>  (130) 
Leu-glu

>  <1A2>  (130) 
N

>  <2A6>  (130) 
N

>  <2B6>  (130) 
N

>  <2C8>  (130) 
N

>  <2C9>  (130) 
N

>  <2C19>  (130) 
N

>  <2D6>  (130) 
N

>  <2E1>  (130) 
N

>  <3A4>  (130) 
N

>  <Citation>  (130) 
Nucleic Acids Res. 2018. Jan 4;46(D1):D608-17. PMID:29140435
Nucleic Acids Res. 2018 Jan 4;46(D1):D1074-D1082. PMID:29126136
Nucleic Acids Res., 45:D380-388 (2017).  PMID:27924025
Nucleic Acids Res. 2016 Jan 4;44(D1):D1202-13. PMID:26400175

>  <ROMol>  (130) 
<rdkit.Chem.rdchem.Mol object at 0x7c29061244a0>

>  <Drug_like>  (130) 
True

$$$$
H-GLU-asp-OH
     RDKit          2D

 18 17  0  0  0  0  0  0  0  0999 V2000
    3.4368    1.7179    0.0000 O   0  0  0  0  0  0  0  0  0  0  0  0
    4.1868    3.0169    0.0000 C   0  0  0  0  0  0  0  0  0  0  0  0
    3.4368    4.3159    0.0000 O   0  0  0  0  0  0  0  0  0  0  0  0
    5.6868    3.0169    0.0000 C   0  0  0  0  0  0  0  0  0  0  0  0
    6.4368    1.7179    0.0000 C   0  0  0  0  0  0  0  0  0  0  0  0
    7.9368    1.7179    0.0000 N   0  0  0  0  0  0  0  0  0  0  0  0
    8.6868    3.0169    0.0000 C   0  0  0  0  0  0  0  0  0  0  0  0
    7.9368    4.3159    0.0000 O   0  0  0  0  0  0  0  0  0  0  0  0
   10.1868    3.0169    0.0000 C   0  0  0  0  0  0  0  0  0  0  0  0
    9.9263    4.4941    0.0000 N   0  0  0  0  0  0  0  0  0  0  0  0
   11.1768    1.3022    0.0000 C   0  0  0  0  0  0  0  0  0  0  0  0
   12.6768    1.3022    0.0000 C   0  0  0  0  0  0  0  0  0  0  0  0
   13.4268    0.0031    0.0000 C   0  0  0  0  0  0  0  0  0  0  0  0
   14.9268    0.0031    0.0000 O   0  0  0  0  0  0  0  0  0  0  0  0
   12.6768   -1.2959    0.0000 O   0  0  0  0  0  0  0  0  0  0  0  0
    6.6973    0.2407    0.0000 C   0  0  0  0  0  0  0  0  0  0  0  0
    8.1068   -0.2724    0.0000 O   0  0  0  0  0  0  0  0  0  0  0  0
    5.5482   -0.7235    0.0000 O   0  0  0  0  0  0  0  0  0  0  0  0
  1  2  2  0
  2  3  1  0
  2  4  1  0
  4  5  1  0
  5  6  1  0
  6  7  1  0
  7  8  2  0
  7  9  1  0
  9 10  1  0
  9 11  1  0
 11 12  1  0
 12 13  1  0
 13 14  2  0
 13 15  1  0
  5 16  1  0
 16 17  2  0
 16 18  1  0
M  CHG  1  15  -1
M  END
>  <cdk:Title>  (131) 
H-GLU-asp-OH

>  <1A2>  (131) 
N

>  <2A6>  (131) 
N

>  <2B6>  (131) 
N

>  <2C8>  (131) 
N

>  <2C9>  (131) 
N

>  <2C19>  (131) 
N

>  <2D6>  (131) 
N

>  <2E1>  (131) 
N

>  <3A4>  (131) 
N

>  <Citation>  (131) 
Nucleic Acids Res. 2018. Jan 4;46(D1):D608-17. PMID:29140435
Nucleic Acids Res. 2018 Jan 4;46(D1):D1074-D1082. PMID:29126136
Nucleic Acids Res., 45:D380-388 (2017).  PMID:27924025
Nucleic Acids Res. 2016 Jan 4;44(D1):D1202-13. PMID:26400175

>  <ROMol>  (131) 
<rdkit.Chem.rdchem.Mol object at 0x7c2906124510>

>  <Drug_like>  (131) 
True

$$$$
Tyr-ile
     RDKit          2D

 21 21  0  0  0  0  0  0  0  0999 V2000
   -1.9706   -0.3793    0.0000 C   0  0  0  0  0  0  0  0  0  0  0  0
   -0.6753   -1.1357    0.0000 C   0  0  0  0  0  0  0  0  0  0  0  0
    1.4612    0.0838    0.0000 C   0  0  0  0  0  0  0  0  0  0  0  0
    0.5026    1.2376    0.0000 C   0  0  0  0  0  0  0  0  0  0  0  0
    2.7565   -0.6725    0.0000 C   0  0  0  0  0  0  0  0  0  0  0  0
    4.0592    0.0710    0.0000 N   0  0  0  0  0  0  0  0  0  0  0  0
    5.7690   -0.9274    0.0000 C   0  0  0  0  0  0  0  0  0  0  0  0
    5.7616   -2.4274    0.0000 O   0  0  0  0  0  0  0  0  0  0  0  0
    7.0717   -0.1838    0.0000 C   0  0  0  0  0  0  0  0  0  0  0  0
    7.5778   -1.5958    0.0000 N   0  0  0  0  0  0  0  0  0  0  0  0
    7.0791    1.3162    0.0000 C   0  0  0  0  0  0  0  0  0  0  0  0
    8.3818    2.0598    0.0000 C   0  0  0  0  0  0  0  0  0  0  0  0
    8.3818    3.5598    0.0000 C   0  0  0  0  0  0  0  0  0  0  0  0
    9.6518    4.3098    0.0000 C   0  0  0  0  0  0  0  0  0  0  0  0
   11.0018    3.5598    0.0000 C   0  0  0  0  0  0  0  0  0  0  0  0
   12.2946    4.3205    0.0000 O   0  0  0  0  0  0  0  0  0  0  0  0
   11.0018    2.0598    0.0000 C   0  0  0  0  0  0  0  0  0  0  0  0
    9.6518    1.3098    0.0000 C   0  0  0  0  0  0  0  0  0  0  0  0
    3.7150   -1.8263    0.0000 C   0  0  0  0  0  0  0  0  0  0  0  0
    3.1950   -3.2333    0.0000 O   0  0  0  0  0  0  0  0  0  0  0  0
    5.1935   -1.5731    0.0000 O   0  0  0  0  0  0  0  0  0  0  0  0
  1  2  1  0
  2  3  1  0
  3  4  1  0
  3  5  1  0
  5  6  1  0
  6  7  1  0
  7  8  2  0
  7  9  1  0
  9 10  1  0
  9 11  1  0
 11 12  1  0
 12 13  2  0
 13 14  1  0
 14 15  2  0
 15 16  1  0
 15 17  1  0
 17 18  2  0
 12 18  1  0
  5 19  1  0
 19 20  1  0
 19 21  2  0
M  END
>  <cdk:Title>  (132) 
Tyr-ile

>  <1A2>  (132) 
N

>  <2A6>  (132) 
N

>  <2B6>  (132) 
N

>  <2C8>  (132) 
N

>  <2C9>  (132) 
N

>  <2C19>  (132) 
N

>  <2D6>  (132) 
N

>  <2E1>  (132) 
N

>  <3A4>  (132) 
N

>  <Citation>  (132) 
Nucleic Acids Res. 2018. Jan 4;46(D1):D608-17. PMID:29140435
Nucleic Acids Res. 2018 Jan 4;46(D1):D1074-D1082. PMID:29126136
Nucleic Acids Res., 45:D380-388 (2017).  PMID:27924025
Nucleic Acids Res. 2016 Jan 4;44(D1):D1202-13. PMID:26400175

>  <ROMol>  (132) 
<rdkit.Chem.rdchem.Mol object at 0x7c29061245f0>

>  <Drug_like>  (132) 
True

$$$$
Tetrahydropentoxyline
     RDKit          2D

 26 28  0  0  0  0  0  0  0  0999 V2000
    4.7854   -8.4581    0.0000 O   0  0  0  0  0  0  0  0  0  0  0  0
    3.8388   -7.2946    0.0000 C   0  0  0  0  0  0  0  0  0  0  0  0
    4.5441   -5.4445    0.0000 C   0  0  0  0  0  0  0  0  0  0  0  0
    5.8316   -6.2141    0.0000 O   0  0  0  0  0  0  0  0  0  0  0  0
    3.2946   -3.9086    0.0000 C   0  0  0  0  0  0  0  0  0  0  0  0
    2.0071   -3.1389    0.0000 O   0  0  0  0  0  0  0  0  0  0  0  0
    3.9999   -2.0585    0.0000 C   0  0  0  0  0  0  0  0  0  0  0  0
    5.2874   -2.8281    0.0000 O   0  0  0  0  0  0  0  0  0  0  0  0
    2.7504   -0.5226    0.0000 C   0  0  0  0  0  0  0  0  0  0  0  0
    1.4628    0.2471    0.0000 O   0  0  0  0  0  0  0  0  0  0  0  0
    3.6267    1.7760    0.0000 C   0  0  0  0  0  0  0  0  0  0  0  0
    4.5867    2.8960    0.0000 N   0  0  0  0  0  0  0  0  0  0  0  0
    4.1367    4.3060    0.0000 C   0  0  0  0  0  0  0  0  0  0  0  0
    2.6967    4.5660    0.0000 C   0  0  0  0  0  0  0  0  0  0  0  0
    1.6267    3.4760    0.0000 C   0  0  0  0  0  0  0  0  0  0  0  0
    2.1867    2.0560    0.0000 C   0  0  0  0  0  0  0  0  0  0  0  0
    0.9167    1.1960    0.0000 N   0  0  0  0  0  0  0  0  0  0  0  0
   -0.2533    2.0060    0.0000 C   0  0  0  0  0  0  0  0  0  0  0  0
   -1.7933    1.6760    0.0000 C   0  0  0  0  0  0  0  0  0  0  0  0
   -2.7933    2.7960    0.0000 C   0  0  0  0  0  0  0  0  0  0  0  0
   -2.3433    4.2660    0.0000 C   0  0  0  0  0  0  0  0  0  0  0  0
   -0.8833    4.5960    0.0000 C   0  0  0  0  0  0  0  0  0  0  0  0
    0.2067    3.4760    0.0000 C   0  0  0  0  0  0  0  0  0  0  0  0
    5.6207    4.5249    0.0000 C   0  0  0  0  0  0  0  0  0  0  0  0
    6.1731    5.9194    0.0000 O   0  0  0  0  0  0  0  0  0  0  0  0
    6.5521    3.3492    0.0000 O   0  0  0  0  0  0  0  0  0  0  0  0
  1  2  1  0
  2  3  1  0
  3  4  1  0
  3  5  1  0
  5  6  1  0
  5  7  1  0
  7  8  1  0
  7  9  1  0
  9 10  1  0
  9 11  1  0
 11 12  1  0
 12 13  1  0
 13 14  1  0
 14 15  1  0
 15 16  2  0
 11 16  1  0
 16 17  1  0
 17 18  1  0
 18 19  2  0
 19 20  1  0
 20 21  2  0
 21 22  1  0
 22 23  2  0
 15 23  1  0
 18 23  1  0
 13 24  1  0
 24 25  1  0
 24 26  2  0
M  CHG  1  25  -1
M  END
>  <cdk:Title>  (133) 
Tetrahydropentoxyline

>  <1A2>  (133) 
N

>  <2A6>  (133) 
N

>  <2B6>  (133) 
N

>  <2C8>  (133) 
N

>  <2C9>  (133) 
N

>  <2C19>  (133) 
N

>  <2D6>  (133) 
N

>  <2E1>  (133) 
N

>  <3A4>  (133) 
N

>  <Citation>  (133) 
Nucleic Acids Res. 2018. Jan 4;46(D1):D608-17. PMID:29140435
Nucleic Acids Res. 2018 Jan 4;46(D1):D1074-D1082. PMID:29126136
Nucleic Acids Res., 45:D380-388 (2017).  PMID:27924025
Nucleic Acids Res. 2016 Jan 4;44(D1):D1202-13. PMID:26400175

>  <ROMol>  (133) 
<rdkit.Chem.rdchem.Mol object at 0x7c2906124660>

>  <Drug_like>  (133) 
True

$$$$
2-OXOALANTOLACTONE
     RDKit          2D

 18 20  0  0  0  0  0  0  0  0999 V2000
   -3.2545   -4.0802    0.0000 C   0  0  0  0  0  0  0  0  0  0  0  0
   -1.9837   -2.5619    0.0000 C   0  0  0  0  0  0  0  0  0  0  0  0
   -3.2837   -1.8119    0.0000 C   0  0  0  0  0  0  0  0  0  0  0  0
   -3.2837   -0.3119    0.0000 C   0  0  0  0  0  0  0  0  0  0  0  0
   -1.9837    0.4381    0.0000 C   0  0  0  0  0  0  0  0  0  0  0  0
   -0.6837   -0.3119    0.0000 C   0  0  0  0  0  0  0  0  0  0  0  0
   -0.6801    2.6281    0.0000 C   0  0  0  0  0  0  0  0  0  0  0  0
    0.6063    0.4281    0.0000 C   0  0  0  0  0  0  0  0  0  0  0  0
    1.9063   -0.3219    0.0000 C   0  0  0  0  0  0  0  0  0  0  0  0
    1.8963   -1.8319    0.0000 C   0  0  0  0  0  0  0  0  0  0  0  0
    0.5963   -2.5619    0.0000 C   0  0  0  0  0  0  0  0  0  0  0  0
   -0.6937   -1.8119    0.0000 C   0  0  0  0  0  0  0  0  0  0  0  0
    3.3263   -2.3119    0.0000 C   0  0  0  0  0  0  0  0  0  0  0  0
    3.7777   -3.7424    0.0000 C   0  0  0  0  0  0  0  0  0  0  0  0
    4.2263   -1.0919    0.0000 C   0  0  0  0  0  0  0  0  0  0  0  0
    5.7263   -1.0999    0.0000 O   0  0  0  0  0  0  0  0  0  0  0  0
    3.3463    0.1281    0.0000 O   0  0  0  0  0  0  0  0  0  0  0  0
   -4.5826    0.4383    0.0000 O   0  0  0  0  0  0  0  0  0  0  0  0
  1  2  1  0
  2  3  1  0
  3  4  1  0
  4  5  1  0
  5  6  1  0
  6  7  1  6
  6  8  1  0
  8  9  1  0
  9 10  1  0
 10 11  1  0
 11 12  2  0
  2 12  1  0
  6 12  1  0
 10 13  1  0
 13 14  2  0
 13 15  1  0
 15 16  2  0
 15 17  1  0
  9 17  1  0
  4 18  2  0
M  END
>  <cdk:Title>  (134) 
2-OXOALANTOLACTONE

>  <1A2>  (134) 
N

>  <2A6>  (134) 
N

>  <2B6>  (134) 
N

>  <2C8>  (134) 
N

>  <2C9>  (134) 
N

>  <2C19>  (134) 
N

>  <2D6>  (134) 
N

>  <2E1>  (134) 
N

>  <3A4>  (134) 
N

>  <Citation>  (134) 
Nucleic Acids Res. 2018. Jan 4;46(D1):D608-17. PMID:29140435
Nucleic Acids Res. 2018 Jan 4;46(D1):D1074-D1082. PMID:29126136
Nucleic Acids Res., 45:D380-388 (2017).  PMID:27924025
Nucleic Acids Res. 2016 Jan 4;44(D1):D1202-13. PMID:26400175

>  <ROMol>  (134) 
<rdkit.Chem.rdchem.Mol object at 0x7c29061247b0>

>  <Drug_like>  (134) 
True

$$$$
3-(Tetrahydro-5_5-dimethylfuran-2-yl)-2-butene-1-ol
     RDKit          2D

 12 12  0  0  0  0  0  0  0  0999 V2000
    3.0218   -2.0281    0.0000 C   0  0  0  0  0  0  0  0  0  0  0  0
    3.6353   -0.6593    0.0000 C   0  0  0  0  0  0  0  0  0  0  0  0
    5.1275   -0.5062    0.0000 C   0  0  0  0  0  0  0  0  0  0  0  0
    5.7411    0.8626    0.0000 C   0  0  0  0  0  0  0  0  0  0  0  0
    4.8624    2.0783    0.0000 O   0  0  0  0  0  0  0  0  0  0  0  0
    2.4755    0.9455    0.0000 C   0  0  0  0  0  0  0  0  0  0  0  0
    1.3585   -0.0493    0.0000 C   0  0  0  0  0  0  0  0  0  0  0  0
    0.0595    0.7007    0.0000 C   0  0  0  0  0  0  0  0  0  0  0  0
    0.3711    2.1605    0.0000 C   0  0  0  0  0  0  0  0  0  0  0  0
    0.3711    3.6605    0.0000 C   0  0  0  0  0  0  0  0  0  0  0  0
   -2.5527    2.4691    0.0000 C   0  0  0  0  0  0  0  0  0  0  0  0
    1.8590    2.3176    0.0000 O   0  0  0  0  0  0  0  0  0  0  0  0
  1  2  1  0
  2  3  2  0
  3  4  1  0
  4  5  1  0
  2  6  1  0
  6  7  1  0
  7  8  1  0
  8  9  1  0
  9 10  1  0
  9 11  1  0
  9 12  1  0
  6 12  1  0
M  END
>  <cdk:Title>  (135) 
3-(Tetrahydro-5_5-dimethylfuran-2-yl)-2-butene-1-ol

>  <1A2>  (135) 
N

>  <2A6>  (135) 
N

>  <2B6>  (135) 
N

>  <2C8>  (135) 
N

>  <2C9>  (135) 
N

>  <2C19>  (135) 
N

>  <2D6>  (135) 
N

>  <2E1>  (135) 
N

>  <3A4>  (135) 
N

>  <Citation>  (135) 
Nucleic Acids Res. 2018. Jan 4;46(D1):D608-17. PMID:29140435
Nucleic Acids Res. 2018 Jan 4;46(D1):D1074-D1082. PMID:29126136
Nucleic Acids Res., 45:D380-388 (2017).  PMID:27924025
Nucleic Acids Res. 2016 Jan 4;44(D1):D1202-13. PMID:26400175

>  <ROMol>  (135) 
<rdkit.Chem.rdchem.Mol object at 0x7c2906124820>

>  <Drug_like>  (135) 
True

$$$$
AC1l3FLX
     RDKit          2D

 16 18  0  0  0  0  0  0  0  0999 V2000
   -7.0102   -0.8758    0.0000 C   0  0  0  0  0  0  0  0  0  0  0  0
   -4.4641   -2.3458    0.0000 C   0  0  0  0  0  0  0  0  0  0  0  0
   -3.6191   -3.5851    0.0000 C   0  0  0  0  0  0  0  0  0  0  0  0
   -2.1233   -3.6972    0.0000 C   0  0  0  0  0  0  0  0  0  0  0  0
   -1.1030   -2.5976    0.0000 C   0  0  0  0  0  0  0  0  0  0  0  0
   -1.3266   -1.1144    0.0000 C   0  0  0  0  0  0  0  0  0  0  0  0
   -2.6256   -0.3644    0.0000 C   0  0  0  0  0  0  0  0  0  0  0  0
   -2.7153    1.1329    0.0000 C   0  0  0  0  0  0  0  0  0  0  0  0
   -1.2169    1.0656    0.0000 C   0  0  0  0  0  0  0  0  0  0  0  0
   -4.1671    1.5103    0.0000 C   0  0  0  0  0  0  0  0  0  0  0  0
   -4.9746    0.2462    0.0000 C   0  0  0  0  0  0  0  0  0  0  0  0
   -4.0219   -0.9124    0.0000 C   0  0  0  0  0  0  0  0  0  0  0  0
   -0.4144    0.6175    0.0000 O   0  0  0  0  0  0  0  0  0  0  0  0
    0.6188   -0.8980    0.0000 C   0  0  0  0  0  0  0  0  0  0  0  0
    1.6065   -2.0269    0.0000 C   0  0  0  0  0  0  0  0  0  0  0  0
    2.5643    0.6075    0.0000 C   0  0  0  0  0  0  0  0  0  0  0  0
  1  2  1  0
  2  3  1  0
  3  4  1  0
  4  5  1  0
  5  6  1  0
  6  7  1  0
  7  8  1  0
  8  9  1  0
  8 10  1  0
 10 11  1  0
 11 12  1  0
  2 12  1  0
  7 12  1  0
  7 13  1  1
 13 14  1  0
  5 14  1  0
 14 15  1  0
 14 16  1  0
M  END
>  <cdk:Title>  (136) 
AC1l3FLX

>  <1A2>  (136) 
N

>  <2A6>  (136) 
N

>  <2B6>  (136) 
N

>  <2C8>  (136) 
N

>  <2C9>  (136) 
N

>  <2C19>  (136) 
N

>  <2D6>  (136) 
N

>  <2E1>  (136) 
N

>  <3A4>  (136) 
N

>  <Citation>  (136) 
Nucleic Acids Res. 2018. Jan 4;46(D1):D608-17. PMID:29140435
Nucleic Acids Res. 2018 Jan 4;46(D1):D1074-D1082. PMID:29126136
Nucleic Acids Res., 45:D380-388 (2017).  PMID:27924025
Nucleic Acids Res. 2016 Jan 4;44(D1):D1202-13. PMID:26400175

>  <ROMol>  (136) 
<rdkit.Chem.rdchem.Mol object at 0x7c2906124970>

>  <Drug_like>  (136) 
True

$$$$
19(20)-EpDPE
     RDKit          2D

 25 25  0  0  0  0  0  0  0  0999 V2000
    5.0699    8.6315    0.0000 C   0  0  0  0  0  0  0  0  0  0  0  0
    3.9214    7.6667    0.0000 C   0  0  0  0  0  0  0  0  0  0  0  0
    4.2662    5.7170    0.0000 C   0  0  0  0  0  0  0  0  0  0  0  0
    2.8569    5.2034    0.0000 C   0  0  0  0  0  0  0  0  0  0  0  0
    1.7080    4.2389    0.0000 C   0  0  0  0  0  0  0  0  0  0  0  0
    1.9688    2.7618    0.0000 C   0  0  0  0  0  0  0  0  0  0  0  0
    0.8200    1.7974    0.0000 C   0  0  0  0  0  0  0  0  0  0  0  0
   -0.5897    2.3101    0.0000 C   0  0  0  0  0  0  0  0  0  0  0  0
   -0.8505    3.7872    0.0000 C   0  0  0  0  0  0  0  0  0  0  0  0
   -2.2601    4.3000    0.0000 C   0  0  0  0  0  0  0  0  0  0  0  0
   -3.4090    3.3355    0.0000 C   0  0  0  0  0  0  0  0  0  0  0  0
   -3.1482    1.8584    0.0000 C   0  0  0  0  0  0  0  0  0  0  0  0
   -4.2971    0.8940    0.0000 C   0  0  0  0  0  0  0  0  0  0  0  0
   -5.7067    1.4067    0.0000 C   0  0  0  0  0  0  0  0  0  0  0  0
   -5.9675    2.8838    0.0000 C   0  0  0  0  0  0  0  0  0  0  0  0
   -7.3771    3.3966    0.0000 C   0  0  0  0  0  0  0  0  0  0  0  0
   -8.5260    2.4321    0.0000 C   0  0  0  0  0  0  0  0  0  0  0  0
   -8.2652    0.9550    0.0000 C   0  0  0  0  0  0  0  0  0  0  0  0
   -9.4141   -0.0094    0.0000 C   0  0  0  0  0  0  0  0  0  0  0  0
  -12.1770    0.9955    0.0000 C   0  0  0  0  0  0  0  0  0  0  0  0
  -12.5212    2.9454    0.0000 C   0  0  0  0  0  0  0  0  0  0  0  0
  -13.9309    3.4581    0.0000 C   0  0  0  0  0  0  0  0  0  0  0  0
  -14.1917    4.9352    0.0000 O   0  0  0  0  0  0  0  0  0  0  0  0
  -15.0797    2.4937    0.0000 O   0  0  0  0  0  0  0  0  0  0  0  0
    4.0067    4.2388    0.0000 O   0  0  0  0  0  0  0  0  0  0  0  0
  1  2  1  0
  2  3  1  0
  3  4  1  0
  4  5  1  0
  5  6  1  0
  6  7  2  0
  7  8  1  0
  8  9  1  0
  9 10  2  0
 10 11  1  0
 11 12  1  0
 12 13  2  0
 13 14  1  0
 14 15  1  0
 15 16  2  0
 16 17  1  0
 17 18  1  0
 18 19  2  0
 19 20  1  0
 20 21  1  0
 21 22  1  0
 22 23  1  0
 22 24  2  0
  4 25  1  0
  3 25  1  0
M  END
>  <cdk:Title>  (137) 
19(20)-EpDPE

>  <1A2>  (137) 
N

>  <2A6>  (137) 
N

>  <2B6>  (137) 
N

>  <2C8>  (137) 
N

>  <2C9>  (137) 
N

>  <2C19>  (137) 
N

>  <2D6>  (137) 
N

>  <2E1>  (137) 
N

>  <3A4>  (137) 
N

>  <Citation>  (137) 
Nucleic Acids Res. 2018. Jan 4;46(D1):D608-17. PMID:29140435
Nucleic Acids Res. 2018 Jan 4;46(D1):D1074-D1082. PMID:29126136
Nucleic Acids Res., 45:D380-388 (2017).  PMID:27924025
Nucleic Acids Res. 2016 Jan 4;44(D1):D1202-13. PMID:26400175

>  <ROMol>  (137) 
<rdkit.Chem.rdchem.Mol object at 0x7c2906124ac0>

>  <Drug_like>  (137) 
True

$$$$
(4S_4AR_7ar_8R)-4-hydroxy-6_6_8-trimethyl-1H_3H_3ah_4H_4ah_5H_6H_7H_7ah_8H-azule
     RDKit          2D

 18 20  0  0  0  0  0  0  0  0999 V2000
   -1.1835   -4.2705    0.0000 C   0  0  0  0  0  0  0  0  0  0  0  0
   -0.1094   -1.5337    0.0000 C   0  0  0  0  0  0  0  0  0  0  0  0
    0.9901   -0.5135    0.0000 C   0  0  0  0  0  0  0  0  0  0  0  0
    0.8781    0.9823    0.0000 C   0  0  0  0  0  0  0  0  0  0  0  0
   -0.3613    1.8273    0.0000 C   0  0  0  0  0  0  0  0  0  0  0  0
    0.0593    3.2671    0.0000 C   0  0  0  0  0  0  0  0  0  0  0  0
    1.5587    3.3120    0.0000 O   0  0  0  0  0  0  0  0  0  0  0  0
    2.0647    1.8999    0.0000 C   0  0  0  0  0  0  0  0  0  0  0  0
    3.5045    1.4793    0.0000 O   0  0  0  0  0  0  0  0  0  0  0  0
   -1.7947    1.3852    0.0000 C   0  0  0  0  0  0  0  0  0  0  0  0
   -2.3427   -0.0111    0.0000 C   0  0  0  0  0  0  0  0  0  0  0  0
   -3.8099   -0.3230    0.0000 C   0  0  0  0  0  0  0  0  0  0  0  0
   -3.9667   -1.8148    0.0000 C   0  0  0  0  0  0  0  0  0  0  0  0
   -6.8424   -1.2035    0.0000 C   0  0  0  0  0  0  0  0  0  0  0  0
   -4.8752   -4.6109    0.0000 C   0  0  0  0  0  0  0  0  0  0  0  0
   -2.5964   -2.4249    0.0000 C   0  0  0  0  0  0  0  0  0  0  0  0
   -1.5927   -1.3102    0.0000 C   0  0  0  0  0  0  0  0  0  0  0  0
   -1.9785    3.8383    0.0000 O   0  0  0  0  0  0  0  0  0  0  0  0
  1  2  1  0
  2  3  1  0
  3  4  2  0
  4  5  1  0
  5  6  1  0
  6  7  1  0
  7  8  1  0
  4  8  1  0
  8  9  2  0
  5 10  1  0
 10 11  1  0
 11 12  1  0
 12 13  1  0
 13 14  1  0
 13 15  1  0
 13 16  1  0
 16 17  1  0
  2 17  1  0
 11 17  1  0
 10 18  1  0
M  END
>  <cdk:Title>  (138) 
(4S_4AR_7ar_8R)-4-hydroxy-6_6_8-trimethyl-1H_3H_3ah_4H_4ah_5H_6H_7H_7ah_8H-azuleno[5_6-c]furan-1-one

>  <1A2>  (138) 
N

>  <2A6>  (138) 
N

>  <2B6>  (138) 
N

>  <2C8>  (138) 
N

>  <2C9>  (138) 
N

>  <2C19>  (138) 
N

>  <2D6>  (138) 
N

>  <2E1>  (138) 
N

>  <3A4>  (138) 
N

>  <Citation>  (138) 
Nucleic Acids Res. 2018. Jan 4;46(D1):D608-17. PMID:29140435
Nucleic Acids Res. 2018 Jan 4;46(D1):D1074-D1082. PMID:29126136
Nucleic Acids Res., 45:D380-388 (2017).  PMID:27924025
Nucleic Acids Res. 2016 Jan 4;44(D1):D1202-13. PMID:26400175

>  <ROMol>  (138) 
<rdkit.Chem.rdchem.Mol object at 0x7c2906124cf0>

>  <Drug_like>  (138) 
True

$$$$
90986-50-8
     RDKit          2D

 44 51  0  0  0  0  0  0  0  0999 V2000
   -9.2089    4.9608    0.0000 C   0  0  0  0  0  0  0  0  0  0  0  0
   -7.7125    4.8562    0.0000 C   0  0  0  0  0  0  0  0  0  0  0  0
   -8.3077    2.4693    0.0000 C   0  0  0  0  0  0  0  0  0  0  0  0
   -6.3422    4.2461    0.0000 C   0  0  0  0  0  0  0  0  0  0  0  0
   -5.1287    5.1278    0.0000 C   0  0  0  0  0  0  0  0  0  0  0  0
   -3.6615    4.8159    0.0000 C   0  0  0  0  0  0  0  0  0  0  0  0
   -2.9115    3.5169    0.0000 C   0  0  0  0  0  0  0  0  0  0  0  0
   -1.4115    3.5169    0.0000 C   0  0  0  0  0  0  0  0  0  0  0  0
   -0.6615    4.8159    0.0000 C   0  0  0  0  0  0  0  0  0  0  0  0
   -1.4115    6.1149    0.0000 C   0  0  0  0  0  0  0  0  0  0  0  0
   -2.9115    6.1149    0.0000 C   0  0  0  0  0  0  0  0  0  0  0  0
   -3.9152    7.2296    0.0000 C   0  0  0  0  0  0  0  0  0  0  0  0
   -5.2855    6.6195    0.0000 C   0  0  0  0  0  0  0  0  0  0  0  0
   -6.6558    7.2296    0.0000 C   0  0  0  0  0  0  0  0  0  0  0  0
   -5.8170    8.4732    0.0000 C   0  0  0  0  0  0  0  0  0  0  0  0
   -7.7348    8.2716    0.0000 C   0  0  0  0  0  0  0  0  0  0  0  0
   -7.8693    6.3480    0.0000 O   0  0  0  0  0  0  0  0  0  0  0  0
   -2.7016    8.1113    0.0000 O   0  0  0  0  0  0  0  0  0  0  0  0
    0.8058    4.5040    0.0000 C   0  0  0  0  0  0  0  0  0  0  0  0
    2.1761    5.1141    0.0000 C   0  0  0  0  0  0  0  0  0  0  0  0
    3.1798    3.9994    0.0000 C   0  0  0  0  0  0  0  0  0  0  0  0
    4.6798    3.9994    0.0000 C   0  0  0  0  0  0  0  0  0  0  0  0
    5.4298    2.7004    0.0000 C   0  0  0  0  0  0  0  0  0  0  0  0
    4.6798    1.4013    0.0000 C   0  0  0  0  0  0  0  0  0  0  0  0
    5.4298    0.1023    0.0000 C   0  0  0  0  0  0  0  0  0  0  0  0
    6.9298    0.1023    0.0000 C   0  0  0  0  0  0  0  0  0  0  0  0
    7.6798   -1.1967    0.0000 C   0  0  0  0  0  0  0  0  0  0  0  0
    6.9298   -2.4958    0.0000 C   0  0  0  0  0  0  0  0  0  0  0  0
    6.5026   -4.9184    0.0000 C   0  0  0  0  0  0  0  0  0  0  0  0
    5.0931   -5.4314    0.0000 C   0  0  0  0  0  0  0  0  0  0  0  0
    8.0026   -4.9184    0.0000 C   0  0  0  0  0  0  0  0  0  0  0  0
    6.7631   -6.3956    0.0000 O   0  0  0  0  0  0  0  0  0  0  0  0
    5.4298   -2.4958    0.0000 O   0  0  0  0  0  0  0  0  0  0  0  0
    4.6798   -1.1967    0.0000 C   0  0  0  0  0  0  0  0  0  0  0  0
    3.1798   -1.1967    0.0000 C   0  0  0  0  0  0  0  0  0  0  0  0
    2.4298    0.1023    0.0000 C   0  0  0  0  0  0  0  0  0  0  0  0
    3.1798    1.4013    0.0000 C   0  0  0  0  0  0  0  0  0  0  0  0
    0.2398    1.4013    0.0000 C   0  0  0  0  0  0  0  0  0  0  0  0
    2.4298    2.7004    0.0000 C   0  0  0  0  0  0  0  0  0  0  0  0
    1.1862    1.8616    0.0000 C   0  0  0  0  0  0  0  0  0  0  0  0
    0.9626    3.0122    0.0000 C   0  0  0  0  0  0  0  0  0  0  0  0
   -0.4078    2.4021    0.0000 N   0  0  0  0  0  0  0  0  0  0  0  0
    8.8288   -2.1609    0.0000 O   0  0  0  0  0  0  0  0  0  0  0  0
    6.1798    1.4013    0.0000 O   0  0  0  0  0  0  0  0  0  0  0  0
  1  2  1  0
  2  3  1  0
  2  4  1  0
  4  5  2  0
  5  6  1  0
  6  7  2  0
  7  8  1  0
  8  9  2  0
  9 10  1  0
 10 11  2  0
  6 11  1  0
 11 12  1  0
 12 13  1  0
  5 13  1  0
 13 14  1  0
 14 15  1  0
 14 16  1  0
 14 17  1  0
  2 17  1  0
 12 18  1  0
  9 19  1  0
 19 20  1  0
 20 21  1  0
 21 22  1  0
 22 23  1  0
 23 24  1  0
 24 25  1  0
 25 26  2  0
 26 27  1  0
 27 28  1  0
 28 29  1  0
 29 30  1  0
 29 31  1  0
 29 32  1  0
 28 33  1  0
 33 34  1  0
 25 34  1  0
 34 35  1  0
 35 36  1  0
 36 37  1  0
 24 37  1  0
 37 38  1  1
 37 39  1  0
 21 39  1  0
 39 40  1  6
 39 41  1  0
 19 41  2  0
 41 42  1  0
  8 42  1  0
 27 43  1  0
 24 44  1  6
M  END
>  <cdk:Title>  (139) 
90986-50-8

>  <1A2>  (139) 
N

>  <2A6>  (139) 
N

>  <2B6>  (139) 
N

>  <2C8>  (139) 
N

>  <2C9>  (139) 
N

>  <2C19>  (139) 
N

>  <2D6>  (139) 
N

>  <2E1>  (139) 
N

>  <3A4>  (139) 
N

>  <Citation>  (139) 
Nucleic Acids Res. 2018. Jan 4;46(D1):D608-17. PMID:29140435
Nucleic Acids Res. 2018 Jan 4;46(D1):D1074-D1082. PMID:29126136
Nucleic Acids Res., 45:D380-388 (2017).  PMID:27924025
Nucleic Acids Res. 2016 Jan 4;44(D1):D1202-13. PMID:26400175

>  <ROMol>  (139) 
<rdkit.Chem.rdchem.Mol object at 0x7c2906124d60>

>  <Drug_like>  (139) 
True

$$$$
Veranisatin a
     RDKit          2D

 24 27  0  0  0  0  0  0  0  0999 V2000
    6.1406    1.6761    0.0000 C   0  0  0  0  0  0  0  0  0  0  0  0
    4.1781    1.4132    0.0000 C   0  0  0  0  0  0  0  0  0  0  0  0
    4.5308   -0.0459    0.0000 C   0  0  0  0  0  0  0  0  0  0  0  0
    3.2512   -0.8308    0.0000 C   0  0  0  0  0  0  0  0  0  0  0  0
    2.1124    0.1453    0.0000 C   0  0  0  0  0  0  0  0  0  0  0  0
    2.6824    1.5253    0.0000 C   0  0  0  0  0  0  0  0  0  0  0  0
    0.7224    2.4853    0.0000 C   0  0  0  0  0  0  0  0  0  0  0  0
   -1.2376    1.5253    0.0000 C   0  0  0  0  0  0  0  0  0  0  0  0
   -0.6676    0.1453    0.0000 C   0  0  0  0  0  0  0  0  0  0  0  0
   -3.5831   -0.2340    0.0000 C   0  0  0  0  0  0  0  0  0  0  0  0
   -4.1592   -1.6189    0.0000 O   0  0  0  0  0  0  0  0  0  0  0  0
   -5.6467   -1.8124    0.0000 C   0  0  0  0  0  0  0  0  0  0  0  0
    0.7224   -0.4347    0.0000 C   0  0  0  0  0  0  0  0  0  0  0  0
    1.7830   -1.4954    0.0000 C   0  0  0  0  0  0  0  0  0  0  0  0
    0.7224   -2.5560    0.0000 O   0  0  0  0  0  0  0  0  0  0  0  0
   -0.3383   -1.4954    0.0000 C   0  0  0  0  0  0  0  0  0  0  0  0
   -1.8383   -1.4954    0.0000 O   0  0  0  0  0  0  0  0  0  0  0  0
   -0.9938   -2.2930    0.0000 O   0  0  0  0  0  0  0  0  0  0  0  0
   -0.6676    2.9153    0.0000 O   0  0  0  0  0  0  0  0  0  0  0  0
    0.7224    3.4853    0.0000 C   0  0  0  0  0  0  0  0  0  0  0  0
    2.1124    2.9153    0.0000 C   0  0  0  0  0  0  0  0  0  0  0  0
    3.5998    3.1093    0.0000 O   0  0  0  0  0  0  0  0  0  0  0  0
    0.7224    4.9853    0.0000 O   0  0  0  0  0  0  0  0  0  0  0  0
    1.3125   -2.1810    0.0000 O   0  0  0  0  0  0  0  0  0  0  0  0
  1  2  1  0
  2  3  1  0
  3  4  1  0
  4  5  1  0
  5  6  1  0
  6  2  1  6
  6  7  1  0
  7  8  1  0
  8  9  1  0
  9 10  1  0
 10 11  1  0
 11 12  1  0
  9 13  1  0
  5 13  1  0
 13 14  1  1
 14 15  1  0
 15 16  1  0
 13 16  1  0
 16 17  2  0
  9 18  1  1
  8 19  1  0
 19 20  1  0
 20 21  1  0
  6 21  1  0
 21 22  1  0
 20 23  2  0
  5 24  1  1
M  END
>  <cdk:Title>  (140) 
Veranisatin a

>  <1A2>  (140) 
N

>  <2A6>  (140) 
N

>  <2B6>  (140) 
N

>  <2C8>  (140) 
N

>  <2C9>  (140) 
N

>  <2C19>  (140) 
N

>  <2D6>  (140) 
N

>  <2E1>  (140) 
N

>  <3A4>  (140) 
N

>  <Citation>  (140) 
Nucleic Acids Res. 2018. Jan 4;46(D1):D608-17. PMID:29140435
Nucleic Acids Res. 2018 Jan 4;46(D1):D1074-D1082. PMID:29126136
Nucleic Acids Res., 45:D380-388 (2017).  PMID:27924025
Nucleic Acids Res. 2016 Jan 4;44(D1):D1202-13. PMID:26400175

>  <ROMol>  (140) 
<rdkit.Chem.rdchem.Mol object at 0x7c2906124dd0>

>  <Drug_like>  (140) 
True

$$$$
Muricatalicin
     RDKit          2D

 43 44  0  0  0  0  0  0  0  0999 V2000
  -29.0184   -4.0477    0.0000 C   0  0  0  0  0  0  0  0  0  0  0  0
  -27.5269   -3.8882    0.0000 C   0  0  0  0  0  0  0  0  0  0  0  0
  -26.9192   -2.5168    0.0000 C   0  0  0  0  0  0  0  0  0  0  0  0
  -24.4732   -2.2553    0.0000 C   0  0  0  0  0  0  0  0  0  0  0  0
  -23.4766   -0.0062    0.0000 C   0  0  0  0  0  0  0  0  0  0  0  0
  -21.0306    0.2554    0.0000 C   0  0  0  0  0  0  0  0  0  0  0  0
  -20.0341    2.5045    0.0000 C   0  0  0  0  0  0  0  0  0  0  0  0
  -17.5880    2.7660    0.0000 C   0  0  0  0  0  0  0  0  0  0  0  0
  -16.5915    5.0151    0.0000 C   0  0  0  0  0  0  0  0  0  0  0  0
  -14.1454    5.2767    0.0000 C   0  0  0  0  0  0  0  0  0  0  0  0
  -13.1489    7.5258    0.0000 C   0  0  0  0  0  0  0  0  0  0  0  0
  -11.1801    7.7363    0.0000 C   0  0  0  0  0  0  0  0  0  0  0  0
  -10.5725    9.1077    0.0000 C   0  0  0  0  0  0  0  0  0  0  0  0
   -8.1264    9.3692    0.0000 C   0  0  0  0  0  0  0  0  0  0  0  0
   -8.4430   10.8377    0.0000 C   0  0  0  0  0  0  0  0  0  0  0  0
   -7.1440   11.5877    0.0000 C   0  0  0  0  0  0  0  0  0  0  0  0
   -6.0306   10.5792    0.0000 C   0  0  0  0  0  0  0  0  0  0  0  0
   -4.7321    9.8284    0.0000 C   0  0  0  0  0  0  0  0  0  0  0  0
   -3.4325   10.5775    0.0000 C   0  0  0  0  0  0  0  0  0  0  0  0
   -0.8874    9.1058    0.0000 C   0  0  0  0  0  0  0  0  0  0  0  0
    1.2438   10.3344    0.0000 C   0  0  0  0  0  0  0  0  0  0  0  0
    2.9579    9.3433    0.0000 C   0  0  0  0  0  0  0  0  0  0  0  0
    4.6733   10.3322    0.0000 C   0  0  0  0  0  0  0  0  0  0  0  0
    6.8029    9.1008    0.0000 C   0  0  0  0  0  0  0  0  0  0  0  0
    8.5183   10.0896    0.0000 C   0  0  0  0  0  0  0  0  0  0  0  0
   10.2324    9.0985    0.0000 C   0  0  0  0  0  0  0  0  0  0  0  0
   11.9477   10.0874    0.0000 C   0  0  0  0  0  0  0  0  0  0  0  0
   13.6618    9.0962    0.0000 C   0  0  0  0  0  0  0  0  0  0  0  0
   15.3772   10.0851    0.0000 C   0  0  0  0  0  0  0  0  0  0  0  0
   16.6757    9.3343    0.0000 C   0  0  0  0  0  0  0  0  0  0  0  0
   17.9753   10.0834    0.0000 C   0  0  0  0  0  0  0  0  0  0  0  0
   18.1337   11.5750    0.0000 C   0  0  0  0  0  0  0  0  0  0  0  0
   19.5944   11.8825    0.0000 C   0  0  0  0  0  0  0  0  0  0  0  0
   20.9631   12.4960    0.0000 C   0  0  0  0  0  0  0  0  0  0  0  0
   20.3516   10.5852    0.0000 O   0  0  0  0  0  0  0  0  0  0  0  0
   19.3388    9.4760    0.0000 C   0  0  0  0  0  0  0  0  0  0  0  0
   19.6453    8.0077    0.0000 O   0  0  0  0  0  0  0  0  0  0  0  0
   16.3421   11.2335    0.0000 O   0  0  0  0  0  0  0  0  0  0  0  0
    9.2674    7.9501    0.0000 O   0  0  0  0  0  0  0  0  0  0  0  0
   -1.8523    7.9574    0.0000 O   0  0  0  0  0  0  0  0  0  0  0  0
   -5.6970    8.6800    0.0000 O   0  0  0  0  0  0  0  0  0  0  0  0
   -6.6385    9.2121    0.0000 O   0  0  0  0  0  0  0  0  0  0  0  0
  -10.4379   11.0831    0.0000 O   0  0  0  0  0  0  0  0  0  0  0  0
  1  2  1  0
  2  3  1  0
  3  4  1  0
  4  5  1  0
  5  6  1  0
  6  7  1  0
  7  8  1  0
  8  9  1  0
  9 10  1  0
 10 11  1  0
 11 12  1  0
 12 13  1  0
 13 14  1  0
 14 15  1  0
 15 16  1  0
 16 17  1  0
 17 18  1  0
 18 19  1  0
 19 20  1  0
 20 21  1  0
 21 22  1  0
 22 23  1  0
 23 24  1  0
 24 25  1  0
 25 26  1  0
 26 27  1  0
 27 28  1  0
 28 29  1  0
 29 30  1  0
 30 31  1  0
 31 32  2  0
 32 33  1  0
 33 34  1  0
 33 35  1  0
 35 36  1  0
 31 36  1  0
 36 37  2  0
 29 38  1  0
 26 39  1  0
 20 40  1  0
 18 41  1  0
 17 42  1  0
 14 42  1  0
 13 43  1  0
M  END
>  <cdk:Title>  (141) 
Muricatalicin

>  <1A2>  (141) 
N

>  <2A6>  (141) 
N

>  <2B6>  (141) 
N

>  <2C8>  (141) 
N

>  <2C9>  (141) 
N

>  <2C19>  (141) 
N

>  <2D6>  (141) 
N

>  <2E1>  (141) 
N

>  <3A4>  (141) 
N

>  <Citation>  (141) 
Nucleic Acids Res. 2018. Jan 4;46(D1):D608-17. PMID:29140435
Nucleic Acids Res. 2018 Jan 4;46(D1):D1074-D1082. PMID:29126136
Nucleic Acids Res., 45:D380-388 (2017).  PMID:27924025
Nucleic Acids Res. 2016 Jan 4;44(D1):D1202-13. PMID:26400175

>  <ROMol>  (141) 
<rdkit.Chem.rdchem.Mol object at 0x7c2906124eb0>

>  <Drug_like>  (141) 
True

$$$$
SCHEMBL3189202
     RDKit          2D

 32 33  0  0  0  0  0  0  0  0999 V2000
    2.0571  -10.6073    0.0000 C   0  0  0  0  0  0  0  0  0  0  0  0
    3.0128   -9.4512    0.0000 C   0  0  0  0  0  0  0  0  0  0  0  0
    2.4894   -8.0454    0.0000 C   0  0  0  0  0  0  0  0  0  0  0  0
    4.4919   -9.7008    0.0000 C   0  0  0  0  0  0  0  0  0  0  0  0
    5.0152  -11.1066    0.0000 C   0  0  0  0  0  0  0  0  0  0  0  0
    6.4943  -11.3562    0.0000 C   0  0  0  0  0  0  0  0  0  0  0  0
    7.0176  -12.7619    0.0000 C   0  0  0  0  0  0  0  0  0  0  0  0
    6.0619  -13.9180    0.0000 C   0  0  0  0  0  0  0  0  0  0  0  0
    8.4967  -13.0116    0.0000 C   0  0  0  0  0  0  0  0  0  0  0  0
    9.4525  -11.8555    0.0000 C   0  0  0  0  0  0  0  0  0  0  0  0
    8.9291  -10.4497    0.0000 O   0  0  0  0  0  0  0  0  0  0  0  0
   10.1907   -8.9237    0.0000 C   0  0  0  0  0  0  0  0  0  0  0  0
   11.4963   -8.1489    0.0000 O   0  0  0  0  0  0  0  0  0  0  0  0
   11.4892   -6.6481    0.0000 C   0  0  0  0  0  0  0  0  0  0  0  0
   10.1951   -5.9096    0.0000 C   0  0  0  0  0  0  0  0  0  0  0  0
    8.8907   -6.6620    0.0000 C   0  0  0  0  0  0  0  0  0  0  0  0
    8.8966   -8.1852    0.0000 C   0  0  0  0  0  0  0  0  0  0  0  0
    6.4722   -7.7683    0.0000 O   0  0  0  0  0  0  0  0  0  0  0  0
    8.3763   -5.2530    0.0000 O   0  0  0  0  0  0  0  0  0  0  0  0
   11.1556   -4.7575    0.0000 O   0  0  0  0  0  0  0  0  0  0  0  0
   12.9677   -6.9015    0.0000 C   0  0  0  0  0  0  0  0  0  0  0  0
   14.2331   -5.3786    0.0000 O   0  0  0  0  0  0  0  0  0  0  0  0
   15.7115   -5.6320    0.0000 C   0  0  0  0  0  0  0  0  0  0  0  0
   15.7078   -4.1420    0.0000 C   0  0  0  0  0  0  0  0  0  0  0  0
   17.0259   -3.3786    0.0000 C   0  0  0  0  0  0  0  0  0  0  0  0
   17.9918   -2.2310    0.0000 O   0  0  0  0  0  0  0  0  0  0  0  0
   18.3278   -4.1354    0.0000 C   0  0  0  0  0  0  0  0  0  0  0  0
   18.3315   -5.6254    0.0000 C   0  0  0  0  0  0  0  0  0  0  0  0
   17.0334   -6.3786    0.0000 O   0  0  0  0  0  0  0  0  0  0  0  0
   18.8478   -7.0337    0.0000 C   0  0  0  0  0  0  0  0  0  0  0  0
   19.8052   -4.3948    0.0000 O   0  0  0  0  0  0  0  0  0  0  0  0
   15.1923   -2.7333    0.0000 O   0  0  0  0  0  0  0  0  0  0  0  0
  1  2  1  0
  2  3  1  0
  2  4  2  0
  4  5  1  0
  5  6  1  0
  6  7  1  0
  7  8  1  0
  7  9  2  0
  9 10  1  0
 10 11  1  0
 11 12  1  0
 12 13  1  0
 13 14  1  0
 14 15  1  0
 15 16  1  0
 16 17  1  0
 12 17  1  0
 17 18  1  0
 16 19  1  0
 15 20  1  0
 14 21  1  0
 21 22  1  0
 22 23  1  0
 23 24  1  0
 24 25  1  0
 25 26  1  0
 25 27  1  0
 27 28  1  0
 28 29  1  0
 23 29  1  0
 28 30  1  0
 27 31  1  0
 24 32  1  0
M  END
>  <cdk:Title>  (142) 
SCHEMBL3189202

>  <1A2>  (142) 
N

>  <2A6>  (142) 
N

>  <2B6>  (142) 
N

>  <2C8>  (142) 
N

>  <2C9>  (142) 
N

>  <2C19>  (142) 
N

>  <2D6>  (142) 
N

>  <2E1>  (142) 
N

>  <3A4>  (142) 
N

>  <Citation>  (142) 
Nucleic Acids Res. 2018. Jan 4;46(D1):D608-17. PMID:29140435
Nucleic Acids Res. 2018 Jan 4;46(D1):D1074-D1082. PMID:29126136
Nucleic Acids Res., 45:D380-388 (2017).  PMID:27924025
Nucleic Acids Res. 2016 Jan 4;44(D1):D1202-13. PMID:26400175

>  <ROMol>  (142) 
<rdkit.Chem.rdchem.Mol object at 0x7c2906125000>

>  <Drug_like>  (142) 
True

$$$$
Spirotaccagenin
     RDKit          2D

 32 37  0  0  0  0  0  0  0  0999 V2000
    3.1996   -2.1187    0.0000 C   0  0  0  0  0  0  0  0  0  0  0  0
    1.9860   -3.0004    0.0000 C   0  0  0  0  0  0  0  0  0  0  0  0
    0.6157   -3.6105    0.0000 C   0  0  0  0  0  0  0  0  0  0  0  0
    0.7725   -5.1023    0.0000 C   0  0  0  0  0  0  0  0  0  0  0  0
   -0.5978   -5.7124    0.0000 C   0  0  0  0  0  0  0  0  0  0  0  0
   -1.6015   -4.5976    0.0000 C   0  0  0  0  0  0  0  0  0  0  0  0
   -3.1015   -4.5976    0.0000 C   0  0  0  0  0  0  0  0  0  0  0  0
   -3.8515   -5.8967    0.0000 C   0  0  0  0  0  0  0  0  0  0  0  0
   -5.3515   -5.8967    0.0000 C   0  0  0  0  0  0  0  0  0  0  0  0
   -6.1015   -4.5976    0.0000 C   0  0  0  0  0  0  0  0  0  0  0  0
   -7.6015   -4.5976    0.0000 C   0  0  0  0  0  0  0  0  0  0  0  0
   -8.3515   -3.2986    0.0000 C   0  0  0  0  0  0  0  0  0  0  0  0
   -7.6015   -1.9996    0.0000 C   0  0  0  0  0  0  0  0  0  0  0  0
   -6.1015   -1.9996    0.0000 C   0  0  0  0  0  0  0  0  0  0  0  0
   -5.3515   -3.2986    0.0000 C   0  0  0  0  0  0  0  0  0  0  0  0
   -4.0788   -1.7818    0.0000 C   0  0  0  0  0  0  0  0  0  0  0  0
   -3.8515   -3.2986    0.0000 C   0  0  0  0  0  0  0  0  0  0  0  0
   -3.1015   -1.9996    0.0000 C   0  0  0  0  0  0  0  0  0  0  0  0
   -1.6015   -1.9996    0.0000 C   0  0  0  0  0  0  0  0  0  0  0  0
   -0.8515   -3.2986    0.0000 C   0  0  0  0  0  0  0  0  0  0  0  0
    0.8766   -0.9201    0.0000 C   0  0  0  0  0  0  0  0  0  0  0  0
   -9.5006   -2.3344    0.0000 O   0  0  0  0  0  0  0  0  0  0  0  0
    2.2397   -5.4141    0.0000 O   0  0  0  0  0  0  0  0  0  0  0  0
    2.9897   -4.1151    0.0000 C   0  0  0  0  0  0  0  0  0  0  0  0
    3.5998   -2.7448    0.0000 C   0  0  0  0  0  0  0  0  0  0  0  0
    5.0916   -2.5880    0.0000 C   0  0  0  0  0  0  0  0  0  0  0  0
    5.9733   -3.8015    0.0000 C   0  0  0  0  0  0  0  0  0  0  0  0
    8.0127   -5.1771    0.0000 C   0  0  0  0  0  0  0  0  0  0  0  0
    9.3609   -4.5196    0.0000 O   0  0  0  0  0  0  0  0  0  0  0  0
    5.3632   -5.1718    0.0000 C   0  0  0  0  0  0  0  0  0  0  0  0
    3.8714   -5.3286    0.0000 O   0  0  0  0  0  0  0  0  0  0  0  0
    7.0153   -2.7225    0.0000 O   0  0  0  0  0  0  0  0  0  0  0  0
  1  2  1  0
  2  3  1  0
  3  4  1  0
  4  5  1  0
  5  6  1  0
  6  7  1  0
  7  8  1  0
  8  9  1  0
  9 10  2  0
 10 11  1  0
 11 12  1  0
 12 13  1  0
 13 14  1  0
 14 15  1  0
 10 15  1  0
 15 16  1  1
 15 17  1  0
  7 17  1  0
 17 18  1  0
 18 19  1  0
 19 20  1  0
  6 20  1  0
  3 20  1  0
 20 21  1  1
 12 22  1  0
  4 23  1  0
 24 23  1  0
  2 24  1  0
 24 25  1  6
 25 26  1  0
 26 27  1  0
 27 28  1  0
 28 29  1  0
 27 30  1  0
 30 31  1  0
 24 31  1  0
 27 32  1  6
M  END
>  <cdk:Title>  (143) 
Spirotaccagenin

>  <1A2>  (143) 
N

>  <2A6>  (143) 
N

>  <2B6>  (143) 
N

>  <2C8>  (143) 
N

>  <2C9>  (143) 
N

>  <2C19>  (143) 
N

>  <2D6>  (143) 
N

>  <2E1>  (143) 
N

>  <3A4>  (143) 
N

>  <Citation>  (143) 
Nucleic Acids Res. 2018. Jan 4;46(D1):D608-17. PMID:29140435
Nucleic Acids Res. 2018 Jan 4;46(D1):D1074-D1082. PMID:29126136
Nucleic Acids Res., 45:D380-388 (2017).  PMID:27924025
Nucleic Acids Res. 2016 Jan 4;44(D1):D1202-13. PMID:26400175

>  <ROMol>  (143) 
<rdkit.Chem.rdchem.Mol object at 0x7c29061250e0>

>  <Drug_like>  (143) 
True

$$$$
Cyclocalopin b
     RDKit          2D

 27 29  0  0  0  0  0  0  0  0999 V2000
   -6.8547   -2.6288    0.0000 C   0  0  0  0  0  0  0  0  0  0  0  0
   -5.5557   -1.8788    0.0000 C   0  0  0  0  0  0  0  0  0  0  0  0
   -4.2567   -2.6288    0.0000 C   0  0  0  0  0  0  0  0  0  0  0  0
   -2.9576   -1.8788    0.0000 C   0  0  0  0  0  0  0  0  0  0  0  0
   -2.9576   -0.3788    0.0000 C   0  0  0  0  0  0  0  0  0  0  0  0
   -1.5873   -0.9889    0.0000 C   0  0  0  0  0  0  0  0  0  0  0  0
   -1.1238   -2.4155    0.0000 C   0  0  0  0  0  0  0  0  0  0  0  0
   -3.5598   -2.7578    0.0000 C   0  0  0  0  0  0  0  0  0  0  0  0
    0.3434   -2.7273    0.0000 C   0  0  0  0  0  0  0  0  0  0  0  0
    1.3471   -1.6126    0.0000 O   0  0  0  0  0  0  0  0  0  0  0  0
    0.8836   -0.1860    0.0000 C   0  0  0  0  0  0  0  0  0  0  0  0
   -0.5836    0.1258    0.0000 C   0  0  0  0  0  0  0  0  0  0  0  0
   -1.3336    1.4249    0.0000 O   0  0  0  0  0  0  0  0  0  0  0  0
   -2.8008    1.1130    0.0000 C   0  0  0  0  0  0  0  0  0  0  0  0
   -2.3218    3.0342    0.0000 C   0  0  0  0  0  0  0  0  0  0  0  0
   -4.3008    1.1130    0.0000 O   0  0  0  0  0  0  0  0  0  0  0  0
    1.8873    0.9287    0.0000 O   0  0  0  0  0  0  0  0  0  0  0  0
   -4.2567    0.3712    0.0000 C   0  0  0  0  0  0  0  0  0  0  0  0
   -5.5557   -0.3788    0.0000 C   0  0  0  0  0  0  0  0  0  0  0  0
   -6.0687    1.0308    0.0000 O   0  0  0  0  0  0  0  0  0  0  0  0
   -7.5459    1.2912    0.0000 C   0  0  0  0  0  0  0  0  0  0  0  0
   -8.0590    2.7008    0.0000 C   0  0  0  0  0  0  0  0  0  0  0  0
   -8.5101    0.1422    0.0000 O   0  0  0  0  0  0  0  0  0  0  0  0
   -3.2667    2.0860    0.0000 O   0  0  0  0  0  0  0  0  0  0  0  0
   -4.7367    4.6321    0.0000 C   0  0  0  0  0  0  0  0  0  0  0  0
   -3.2667    7.1782    0.0000 C   0  0  0  0  0  0  0  0  0  0  0  0
   -6.2367    4.6321    0.0000 O   0  0  0  0  0  0  0  0  0  0  0  0
  1  2  1  0
  2  3  2  0
  3  4  1  0
  5  4  1  6
  5  6  1  0
  6  7  1  0
  7  8  1  0
  7  9  1  0
  9 10  1  0
 10 11  1  0
 11 12  1  0
  6 12  1  0
 12 13  1  0
 13 14  1  0
  5 14  1  0
 14 15  1  6
 14 16  1  0
 11 17  2  0
  5 18  1  0
 18 19  1  0
  2 19  1  0
 19 20  1  0
 20 21  1  0
 21 22  1  0
 21 23  2  0
 18 24  1  0
 24 25  1  0
 25 26  1  0
 25 27  2  0
M  END
>  <cdk:Title>  (144) 
Cyclocalopin b

>  <1A2>  (144) 
N

>  <2A6>  (144) 
N

>  <2B6>  (144) 
N

>  <2C8>  (144) 
N

>  <2C9>  (144) 
N

>  <2C19>  (144) 
N

>  <2D6>  (144) 
N

>  <2E1>  (144) 
N

>  <3A4>  (144) 
N

>  <Citation>  (144) 
Nucleic Acids Res. 2018. Jan 4;46(D1):D608-17. PMID:29140435
Nucleic Acids Res. 2018 Jan 4;46(D1):D1074-D1082. PMID:29126136
Nucleic Acids Res., 45:D380-388 (2017).  PMID:27924025
Nucleic Acids Res. 2016 Jan 4;44(D1):D1202-13. PMID:26400175

>  <ROMol>  (144) 
<rdkit.Chem.rdchem.Mol object at 0x7c2906125150>

>  <Drug_like>  (144) 
True

$$$$
AC1l99Sy
     RDKit          2D

 26 29  0  0  0  0  0  0  0  0999 V2000
   -1.1481   -5.0337    0.0000 C   0  0  0  0  0  0  0  0  0  0  0  0
   -0.6376   -7.9291    0.0000 C   0  0  0  0  0  0  0  0  0  0  0  0
   -1.9376   -7.1791    0.0000 C   0  0  0  0  0  0  0  0  0  0  0  0
   -3.2376   -7.9291    0.0000 C   0  0  0  0  0  0  0  0  0  0  0  0
   -3.2376   -9.4291    0.0000 C   0  0  0  0  0  0  0  0  0  0  0  0
   -1.9376  -10.1791    0.0000 C   0  0  0  0  0  0  0  0  0  0  0  0
   -0.6376   -9.4291    0.0000 C   0  0  0  0  0  0  0  0  0  0  0  0
    0.6624  -10.1791    0.0000 C   0  0  0  0  0  0  0  0  0  0  0  0
    1.9624   -9.4291    0.0000 C   0  0  0  0  0  0  0  0  0  0  0  0
    1.9624   -7.9291    0.0000 C   0  0  0  0  0  0  0  0  0  0  0  0
    3.2624   -7.1791    0.0000 C   0  0  0  0  0  0  0  0  0  0  0  0
    4.6824   -7.6491    0.0000 C   0  0  0  0  0  0  0  0  0  0  0  0
    5.5724   -6.4291    0.0000 C   0  0  0  0  0  0  0  0  0  0  0  0
    4.6824   -5.2191    0.0000 C   0  0  0  0  0  0  0  0  0  0  0  0
    3.2624   -5.6791    0.0000 C   0  0  0  0  0  0  0  0  0  0  0  0
    3.5705   -2.7553    0.0000 C   0  0  0  0  0  0  0  0  0  0  0  0
    1.9624   -4.9291    0.0000 C   0  0  0  0  0  0  0  0  0  0  0  0
    0.6624   -5.6791    0.0000 C   0  0  0  0  0  0  0  0  0  0  0  0
    0.1525   -2.7836    0.0000 O   0  0  0  0  0  0  0  0  0  0  0  0
    0.6624   -7.1791    0.0000 C   0  0  0  0  0  0  0  0  0  0  0  0
    6.3935   -4.2229    0.0000 C   0  0  0  0  0  0  0  0  0  0  0  0
    7.6953   -4.9682    0.0000 C   0  0  0  0  0  0  0  0  0  0  0  0
    7.7007   -6.4682    0.0000 O   0  0  0  0  0  0  0  0  0  0  0  0
    6.3881   -2.7229    0.0000 O   0  0  0  0  0  0  0  0  0  0  0  0
    4.0704   -3.8496    0.0000 O   0  0  0  0  0  0  0  0  0  0  0  0
   -4.7149   -9.1688    0.0000 O   0  0  0  0  0  0  0  0  0  0  0  0
  2  1  1  1
  2  3  1  0
  3  4  1  0
  4  5  1  0
  5  6  1  0
  6  7  1  0
  2  7  1  0
  7  8  2  0
  8  9  1  0
  9 10  1  0
 10 11  1  0
 11 12  1  0
 12 13  1  0
 13 14  1  0
 14 15  1  0
 11 15  1  0
 15 16  1  6
 15 17  1  0
 17 18  1  0
 18 19  1  0
 18 20  1  0
 10 20  1  0
  2 20  1  0
 14 21  1  0
 21 22  1  0
 22 23  1  0
 21 24  2  0
 14 25  1  6
  5 26  1  0
M  END
>  <cdk:Title>  (145) 
AC1l99Sy

>  <1A2>  (145) 
N

>  <2A6>  (145) 
N

>  <2B6>  (145) 
N

>  <2C8>  (145) 
N

>  <2C9>  (145) 
N

>  <2C19>  (145) 
N

>  <2D6>  (145) 
N

>  <2E1>  (145) 
N

>  <3A4>  (145) 
N

>  <Citation>  (145) 
Nucleic Acids Res. 2018. Jan 4;46(D1):D608-17. PMID:29140435
Nucleic Acids Res. 2018 Jan 4;46(D1):D1074-D1082. PMID:29126136
Nucleic Acids Res., 45:D380-388 (2017).  PMID:27924025
Nucleic Acids Res. 2016 Jan 4;44(D1):D1202-13. PMID:26400175

>  <ROMol>  (145) 
<rdkit.Chem.rdchem.Mol object at 0x7c29061251c0>

>  <Drug_like>  (145) 
True

$$$$
(-)-Normorphine
     RDKit          2D

 20 24  0  0  0  0  0  0  0  0999 V2000
    2.1189    0.2247    0.0000 C   0  0  0  0  0  0  0  0  0  0  0  0
    0.8189    0.9747    0.0000 C   0  0  0  0  0  0  0  0  0  0  0  0
   -0.4811    0.2247    0.0000 C   0  0  0  0  0  0  0  0  0  0  0  0
   -0.4811   -1.2753    0.0000 C   0  0  0  0  0  0  0  0  0  0  0  0
    0.8189   -2.0253    0.0000 C   0  0  0  0  0  0  0  0  0  0  0  0
    2.1189   -1.2753    0.0000 C   0  0  0  0  0  0  0  0  0  0  0  0
    3.4289   -2.0353    0.0000 C   0  0  0  0  0  0  0  0  0  0  0  0
    3.4189   -3.5253    0.0000 C   0  0  0  0  0  0  0  0  0  0  0  0
    2.1189   -4.2753    0.0000 C   0  0  0  0  0  0  0  0  0  0  0  0
    2.1089   -5.7653    0.0000 C   0  0  0  0  0  0  0  0  0  0  0  0
    0.7989   -6.5053    0.0000 C   0  0  0  0  0  0  0  0  0  0  0  0
   -0.4911   -5.7353    0.0000 C   0  0  0  0  0  0  0  0  0  0  0  0
   -0.4711   -4.2553    0.0000 C   0  0  0  0  0  0  0  0  0  0  0  0
    0.8289   -3.5153    0.0000 C   0  0  0  0  0  0  0  0  0  0  0  0
    2.1289   -2.7653    0.0000 C   0  0  0  0  0  0  0  0  0  0  0  0
    4.7089   -2.7653    0.0000 C   0  0  0  0  0  0  0  0  0  0  0  0
    4.7189   -4.2853    0.0000 N   0  0  0  0  0  0  0  0  0  0  0  0
   -1.9711   -2.6553    0.0000 O   0  0  0  0  0  0  0  0  0  0  0  0
   -2.9076   -5.2746    0.0000 O   0  0  0  0  0  0  0  0  0  0  0  0
   -1.7800    0.9749    0.0000 O   0  0  0  0  0  0  0  0  0  0  0  0
  1  2  2  0
  2  3  1  0
  3  4  2  0
  4  5  1  0
  5  6  2  0
  1  6  1  0
  6  7  1  0
  7  8  1  0
  8  9  1  0
  9 10  1  0
 10 11  2  0
 11 12  1  0
 12 13  1  0
 13 14  1  0
  9 14  1  0
 14  5  1  0
 14 15  1  6
 15 16  1  0
 16 17  1  0
  8 17  1  0
 13 18  1  0
  4 18  1  0
 12 19  1  0
  3 20  1  0
M  END
>  <cdk:Title>  (146) 
(-)-Normorphine

>  <1A2>  (146) 
N

>  <2A6>  (146) 
N

>  <2B6>  (146) 
N

>  <2C8>  (146) 
N

>  <2C9>  (146) 
N

>  <2C19>  (146) 
N

>  <2D6>  (146) 
N

>  <2E1>  (146) 
N

>  <3A4>  (146) 
N

>  <Citation>  (146) 
Nucleic Acids Res. 2018. Jan 4;46(D1):D608-17. PMID:29140435
Nucleic Acids Res. 2018 Jan 4;46(D1):D1074-D1082. PMID:29126136
Nucleic Acids Res., 45:D380-388 (2017).  PMID:27924025
Nucleic Acids Res. 2016 Jan 4;44(D1):D1202-13. PMID:26400175

>  <ROMol>  (146) 
<rdkit.Chem.rdchem.Mol object at 0x7c2906125310>

>  <Drug_like>  (146) 
True

$$$$
Janthitrem C
     RDKit          2D

 42 49  0  0  0  0  0  0  0  0999 V2000
    2.7909   -1.4052    0.0000 C   0  0  0  0  0  0  0  0  0  0  0  0
    4.2004   -0.8922    0.0000 C   0  0  0  0  0  0  0  0  0  0  0  0
    5.3495   -1.8564    0.0000 C   0  0  0  0  0  0  0  0  0  0  0  0
    4.4609    0.5850    0.0000 C   0  0  0  0  0  0  0  0  0  0  0  0
    5.2109    1.8841    0.0000 C   0  0  0  0  0  0  0  0  0  0  0  0
    4.4609    3.1831    0.0000 C   0  0  0  0  0  0  0  0  0  0  0  0
    2.9609    3.1831    0.0000 C   0  0  0  0  0  0  0  0  0  0  0  0
    2.2109    1.8841    0.0000 C   0  0  0  0  0  0  0  0  0  0  0  0
    0.7109    1.8841    0.0000 C   0  0  0  0  0  0  0  0  0  0  0  0
   -0.0391    3.1831    0.0000 C   0  0  0  0  0  0  0  0  0  0  0  0
    0.7109    4.4822    0.0000 C   0  0  0  0  0  0  0  0  0  0  0  0
   -1.1497    5.1594    0.0000 C   0  0  0  0  0  0  0  0  0  0  0  0
   -0.0391    5.7812    0.0000 C   0  0  0  0  0  0  0  0  0  0  0  0
   -1.7672    3.4027    0.0000 C   0  0  0  0  0  0  0  0  0  0  0  0
    0.7109    7.0802    0.0000 C   0  0  0  0  0  0  0  0  0  0  0  0
    2.2109    7.0802    0.0000 C   0  0  0  0  0  0  0  0  0  0  0  0
    2.9609    5.7812    0.0000 C   0  0  0  0  0  0  0  0  0  0  0  0
    2.2109    4.4822    0.0000 C   0  0  0  0  0  0  0  0  0  0  0  0
    3.7109    4.4822    0.0000 O   0  0  0  0  0  0  0  0  0  0  0  0
   -0.2928    8.1950    0.0000 C   0  0  0  0  0  0  0  0  0  0  0  0
   -1.6631    7.5848    0.0000 C   0  0  0  0  0  0  0  0  0  0  0  0
   -3.1303    7.8967    0.0000 C   0  0  0  0  0  0  0  0  0  0  0  0
   -3.8803    9.1958    0.0000 C   0  0  0  0  0  0  0  0  0  0  0  0
   -5.3803    9.1958    0.0000 C   0  0  0  0  0  0  0  0  0  0  0  0
   -6.3840   10.3105    0.0000 C   0  0  0  0  0  0  0  0  0  0  0  0
   -7.7544    9.7004    0.0000 C   0  0  0  0  0  0  0  0  0  0  0  0
   -7.5976    8.2086    0.0000 C   0  0  0  0  0  0  0  0  0  0  0  0
   -8.8111    7.3269    0.0000 C   0  0  0  0  0  0  0  0  0  0  0  0
  -10.1814    7.9370    0.0000 C   0  0  0  0  0  0  0  0  0  0  0  0
  -11.6778    8.0416    0.0000 C   0  0  0  0  0  0  0  0  0  0  0  0
  -10.7765    5.5501    0.0000 C   0  0  0  0  0  0  0  0  0  0  0  0
  -10.3382    9.4288    0.0000 O   0  0  0  0  0  0  0  0  0  0  0  0
   -9.1247   10.3105    0.0000 C   0  0  0  0  0  0  0  0  0  0  0  0
   -7.4807   12.7478    0.0000 C   0  0  0  0  0  0  0  0  0  0  0  0
  -10.2037   11.3525    0.0000 C   0  0  0  0  0  0  0  0  0  0  0  0
   -6.1303    7.8967    0.0000 C   0  0  0  0  0  0  0  0  0  0  0  0
   -5.3803    6.5977    0.0000 C   0  0  0  0  0  0  0  0  0  0  0  0
   -3.8803    6.5977    0.0000 C   0  0  0  0  0  0  0  0  0  0  0  0
   -2.8767    5.4830    0.0000 N   0  0  0  0  0  0  0  0  0  0  0  0
   -1.5063    6.0931    0.0000 C   0  0  0  0  0  0  0  0  0  0  0  0
    2.9609    0.5850    0.0000 O   0  0  0  0  0  0  0  0  0  0  0  0
    6.3600    0.9199    0.0000 O   0  0  0  0  0  0  0  0  0  0  0  0
  1  2  2  0
  2  3  1  0
  2  4  1  0
  4  5  1  0
  5  6  1  0
  6  7  2  0
  7  8  1  0
  8  9  1  0
  9 10  1  0
 10 11  1  0
 11 12  1  1
 11 13  1  0
 13 14  1  6
 13 15  1  0
 15 16  1  0
 16 17  1  0
 17 18  1  0
  7 18  1  0
 11 18  1  0
 18 19  1  6
 15 20  1  0
 20 21  1  0
 21 22  1  0
 22 23  2  0
 23 24  1  0
 24 25  1  0
 25 26  1  0
 26 27  1  0
 27 28  2  0
 28 29  1  0
 29 30  1  0
 29 31  1  0
 29 32  1  0
 32 33  1  0
 26 33  1  0
 33 34  1  0
 33 35  1  0
 27 36  1  0
 24 36  2  0
 36 37  1  0
 37 38  2  0
 22 38  1  0
 38 39  1  0
 39 40  1  0
 21 40  2  0
 13 40  1  0
  8 41  1  0
  4 41  1  0
  5 42  1  0
M  END
>  <cdk:Title>  (147) 
Janthitrem C

>  <1A2>  (147) 
N

>  <2A6>  (147) 
N

>  <2B6>  (147) 
N

>  <2C8>  (147) 
N

>  <2C9>  (147) 
N

>  <2C19>  (147) 
N

>  <2D6>  (147) 
N

>  <2E1>  (147) 
N

>  <3A4>  (147) 
N

>  <Citation>  (147) 
Nucleic Acids Res. 2018. Jan 4;46(D1):D608-17. PMID:29140435
Nucleic Acids Res. 2018 Jan 4;46(D1):D1074-D1082. PMID:29126136
Nucleic Acids Res., 45:D380-388 (2017).  PMID:27924025
Nucleic Acids Res. 2016 Jan 4;44(D1):D1202-13. PMID:26400175

>  <ROMol>  (147) 
<rdkit.Chem.rdchem.Mol object at 0x7c2906125380>

>  <Drug_like>  (147) 
True

$$$$
Isovaleryl-L-carnitine
     RDKit          2D

 17 16  0  0  0  0  0  0  0  0999 V2000
    9.7748   -4.4364    0.0000 N   0  0  0  0  0  0  0  0  0  0  0  0
   10.5248   -3.1374    0.0000 C   0  0  0  0  0  0  0  0  0  0  0  0
   13.4648   -3.1374    0.0000 C   0  0  0  0  0  0  0  0  0  0  0  0
   13.1210   -1.1875    0.0000 C   0  0  0  0  0  0  0  0  0  0  0  0
   14.2700   -0.2233    0.0000 C   0  0  0  0  0  0  0  0  0  0  0  0
   14.0096    1.2539    0.0000 O   0  0  0  0  0  0  0  0  0  0  0  0
   15.6796   -0.7363    0.0000 O   0  0  0  0  0  0  0  0  0  0  0  0
   14.2148   -4.4364    0.0000 O   0  0  0  0  0  0  0  0  0  0  0  0
   15.7148   -4.4364    0.0000 C   0  0  0  0  0  0  0  0  0  0  0  0
   16.4648   -5.7355    0.0000 C   0  0  0  0  0  0  0  0  0  0  0  0
   17.9648   -5.7355    0.0000 C   0  0  0  0  0  0  0  0  0  0  0  0
   18.7148   -4.4364    0.0000 C   0  0  0  0  0  0  0  0  0  0  0  0
   17.6210   -7.6854    0.0000 C   0  0  0  0  0  0  0  0  0  0  0  0
   16.4648   -3.1374    0.0000 O   0  0  0  0  0  0  0  0  0  0  0  0
   10.5248   -5.7355    0.0000 C   0  0  0  0  0  0  0  0  0  0  0  0
    7.8903   -6.0177    0.0000 C   0  0  0  0  0  0  0  0  0  0  0  0
    7.5226   -2.5466    0.0000 C   0  0  0  0  0  0  0  0  0  0  0  0
  1  2  1  0
  2  3  1  0
  3  4  1  0
  4  5  1  0
  5  6  1  0
  5  7  2  0
  3  8  1  0
  8  9  1  0
  9 10  1  0
 10 11  1  0
 11 12  1  0
 11 13  1  0
  9 14  2  0
  1 15  1  0
  1 16  1  0
  1 17  1  0
M  CHG  2   1   1   6  -1
M  END
>  <cdk:Title>  (148) 
Isovaleryl-L-carnitine

>  <1A2>  (148) 
N

>  <2A6>  (148) 
N

>  <2B6>  (148) 
N

>  <2C8>  (148) 
N

>  <2C9>  (148) 
N

>  <2C19>  (148) 
N

>  <2D6>  (148) 
N

>  <2E1>  (148) 
N

>  <3A4>  (148) 
N

>  <Citation>  (148) 
Nucleic Acids Res. 2018. Jan 4;46(D1):D608-17. PMID:29140435
Nucleic Acids Res. 2018 Jan 4;46(D1):D1074-D1082. PMID:29126136
Nucleic Acids Res., 45:D380-388 (2017).  PMID:27924025
Nucleic Acids Res. 2016 Jan 4;44(D1):D1202-13. PMID:26400175

>  <ROMol>  (148) 
<rdkit.Chem.rdchem.Mol object at 0x7c29061253f0>

>  <Drug_like>  (148) 
True

$$$$
Tuberoside
     RDKit          2D

 42 46  0  0  0  0  0  0  0  0999 V2000
   -4.7843    0.3130    0.0000 C   0  0  0  0  0  0  0  0  0  0  0  0
   -7.6797    0.8229    0.0000 C   0  0  0  0  0  0  0  0  0  0  0  0
   -6.7151   -0.3269    0.0000 C   0  0  0  0  0  0  0  0  0  0  0  0
   -7.2277   -1.7375    0.0000 C   0  0  0  0  0  0  0  0  0  0  0  0
   -8.7048   -1.9983    0.0000 C   0  0  0  0  0  0  0  0  0  0  0  0
   -9.6694   -0.8485    0.0000 C   0  0  0  0  0  0  0  0  0  0  0  0
   -9.1569    0.5621    0.0000 C   0  0  0  0  0  0  0  0  0  0  0  0
  -10.6340    0.3013    0.0000 O   0  0  0  0  0  0  0  0  0  0  0  0
  -10.1214    1.7119    0.0000 C   0  0  0  0  0  0  0  0  0  0  0  0
  -11.7025   -0.1727    0.0000 O   0  0  0  0  0  0  0  0  0  0  0  0
   -9.6089    3.1225    0.0000 C   0  0  0  0  0  0  0  0  0  0  0  0
   -8.1317    3.3833    0.0000 C   0  0  0  0  0  0  0  0  0  0  0  0
   -7.1671    2.2335    0.0000 C   0  0  0  0  0  0  0  0  0  0  0  0
   -5.6900    2.4943    0.0000 C   0  0  0  0  0  0  0  0  0  0  0  0
   -5.1774    3.9049    0.0000 C   0  0  0  0  0  0  0  0  0  0  0  0
   -6.1420    5.0547    0.0000 C   0  0  0  0  0  0  0  0  0  0  0  0
   -3.3163    5.8665    0.0000 C   0  0  0  0  0  0  0  0  0  0  0  0
   -7.6192    4.7939    0.0000 C   0  0  0  0  0  0  0  0  0  0  0  0
   -8.3190    6.1123    0.0000 C   0  0  0  0  0  0  0  0  0  0  0  0
   -7.2822    7.1991    0.0000 C   0  0  0  0  0  0  0  0  0  0  0  0
   -5.9359    6.5330    0.0000 C   0  0  0  0  0  0  0  0  0  0  0  0
   -4.9210    9.2923    0.0000 C   0  0  0  0  0  0  0  0  0  0  0  0
   -6.8031   11.5509    0.0000 C   0  0  0  0  0  0  0  0  0  0  0  0
   -6.2853   12.9587    0.0000 C   0  0  0  0  0  0  0  0  0  0  0  0
   -7.2455   14.1110    0.0000 C   0  0  0  0  0  0  0  0  0  0  0  0
   -8.5420   14.8654    0.0000 C   0  0  0  0  0  0  0  0  0  0  0  0
   -6.3963   16.4198    0.0000 C   0  0  0  0  0  0  0  0  0  0  0  0
   -7.3566   17.5721    0.0000 C   0  0  0  0  0  0  0  0  0  0  0  0
   -5.0998   15.6654    0.0000 C   0  0  0  0  0  0  0  0  0  0  0  0
   -3.6245    8.5379    0.0000 C   0  0  0  0  0  0  0  0  0  0  0  0
   -7.6990   -4.7609    0.0000 O   0  0  0  0  0  0  0  0  0  0  0  0
   -8.6630   -5.9100    0.0000 C   0  0  0  0  0  0  0  0  0  0  0  0
   -9.9742   -6.6753    0.0000 O   0  0  0  0  0  0  0  0  0  0  0  0
   -9.9780   -8.1762    0.0000 C   0  0  0  0  0  0  0  0  0  0  0  0
   -8.6893   -8.9240    0.0000 C   0  0  0  0  0  0  0  0  0  0  0  0
   -7.3795   -8.1810    0.0000 C   0  0  0  0  0  0  0  0  0  0  0  0
   -7.3743   -6.6579    0.0000 C   0  0  0  0  0  0  0  0  0  0  0  0
   -5.8979   -6.9228    0.0000 O   0  0  0  0  0  0  0  0  0  0  0  0
   -6.8752   -9.5937    0.0000 O   0  0  0  0  0  0  0  0  0  0  0  0
   -9.6581  -10.0692    0.0000 O   0  0  0  0  0  0  0  0  0  0  0  0
  -11.4546   -7.9121    0.0000 C   0  0  0  0  0  0  0  0  0  0  0  0
  -12.4215   -9.0589    0.0000 O   0  0  0  0  0  0  0  0  0  0  0  0
  2  1  1  6
  2  3  1  0
  3  4  1  0
  4  5  1  0
  5  6  1  0
  6  7  1  0
  2  7  1  0
  7  8  1  1
  7  9  1  0
  9 10  1  0
  9 11  1  0
 11 12  2  0
 12 13  1  0
  2 13  1  0
 13 14  1  0
 14 15  1  0
 15 16  1  0
 16 17  1  1
 16 18  1  0
 12 18  1  0
 18 19  1  0
 19 20  1  0
 20 21  1  0
 16 21  1  0
 21 22  1  0
 22 23  1  0
 23 24  2  0
 24 25  1  0
 25 26  1  0
 25 27  1  0
 27 28  1  0
 27 29  1  0
 22 30  1  0
  5 31  1  0
 31 32  1  0
 32 33  1  0
 33 34  1  0
 34 35  1  0
 35 36  1  0
 36 37  1  0
 32 37  1  0
 37 38  1  0
 36 39  1  0
 35 40  1  0
 34 41  1  0
 41 42  1  0
M  END
>  <cdk:Title>  (149) 
Tuberoside

>  <1A2>  (149) 
N

>  <2A6>  (149) 
N

>  <2B6>  (149) 
N

>  <2C8>  (149) 
N

>  <2C9>  (149) 
N

>  <2C19>  (149) 
N

>  <2D6>  (149) 
N

>  <2E1>  (149) 
N

>  <3A4>  (149) 
N

>  <Citation>  (149) 
Nucleic Acids Res. 2018. Jan 4;46(D1):D608-17. PMID:29140435
Nucleic Acids Res. 2018 Jan 4;46(D1):D1074-D1082. PMID:29126136
Nucleic Acids Res., 45:D380-388 (2017).  PMID:27924025
Nucleic Acids Res. 2016 Jan 4;44(D1):D1202-13. PMID:26400175

>  <ROMol>  (149) 
<rdkit.Chem.rdchem.Mol object at 0x7c2906125460>

>  <Drug_like>  (149) 
True

$$$$
3_7-Dimethyl-5-octene-1_7-diol 1-glucoside
     RDKit          2D

 23 23  0  0  0  0  0  0  0  0999 V2000
    7.6439    4.2213    0.0000 C   0  0  0  0  0  0  0  0  0  0  0  0
    6.9710    2.3592    0.0000 C   0  0  0  0  0  0  0  0  0  0  0  0
    8.4488    2.1021    0.0000 C   0  0  0  0  0  0  0  0  0  0  0  0
    8.9650    0.6937    0.0000 C   0  0  0  0  0  0  0  0  0  0  0  0
   10.4429    0.4367    0.0000 C   0  0  0  0  0  0  0  0  0  0  0  0
   10.9591   -0.9717    0.0000 C   0  0  0  0  0  0  0  0  0  0  0  0
   12.4369   -1.2288    0.0000 C   0  0  0  0  0  0  0  0  0  0  0  0
   10.9626   -2.4717    0.0000 C   0  0  0  0  0  0  0  0  0  0  0  0
    9.0100   -1.3200    0.0000 O   0  0  0  0  0  0  0  0  0  0  0  0
    6.0094    1.2079    0.0000 C   0  0  0  0  0  0  0  0  0  0  0  0
    4.0587    1.5472    0.0000 C   0  0  0  0  0  0  0  0  0  0  0  0
    3.0972    0.3959    0.0000 O   0  0  0  0  0  0  0  0  0  0  0  0
    1.1465    0.7353    0.0000 C   0  0  0  0  0  0  0  0  0  0  0  0
    1.1465   -0.7547    0.0000 C   0  0  0  0  0  0  0  0  0  0  0  0
   -0.1735   -1.5147    0.0000 C   0  0  0  0  0  0  0  0  0  0  0  0
   -1.4735   -0.7547    0.0000 C   0  0  0  0  0  0  0  0  0  0  0  0
   -1.4735    0.7353    0.0000 C   0  0  0  0  0  0  0  0  0  0  0  0
   -1.9862    2.1449    0.0000 C   0  0  0  0  0  0  0  0  0  0  0  0
   -3.4634    2.4057    0.0000 O   0  0  0  0  0  0  0  0  0  0  0  0
   -0.1735    1.4853    0.0000 O   0  0  0  0  0  0  0  0  0  0  0  0
   -2.9503   -0.4916    0.0000 O   0  0  0  0  0  0  0  0  0  0  0  0
   -1.1423   -2.6599    0.0000 O   0  0  0  0  0  0  0  0  0  0  0  0
    1.6584   -2.1647    0.0000 O   0  0  0  0  0  0  0  0  0  0  0  0
  1  2  1  0
  2  3  1  0
  3  4  1  0
  4  5  2  0
  5  6  1  0
  6  7  1  0
  6  8  1  0
  6  9  1  0
  2 10  1  0
 10 11  1  0
 11 12  1  0
 12 13  1  0
 13 14  1  0
 14 15  1  0
 15 16  1  0
 16 17  1  0
 17 18  1  0
 18 19  1  0
 17 20  1  0
 13 20  1  0
 16 21  1  0
 15 22  1  0
 14 23  1  0
M  END
>  <cdk:Title>  (150) 
3_7-Dimethyl-5-octene-1_7-diol 1-glucoside

>  <1A2>  (150) 
N

>  <2A6>  (150) 
N

>  <2B6>  (150) 
N

>  <2C8>  (150) 
N

>  <2C9>  (150) 
N

>  <2C19>  (150) 
N

>  <2D6>  (150) 
N

>  <2E1>  (150) 
N

>  <3A4>  (150) 
N

>  <Citation>  (150) 
Nucleic Acids Res. 2018. Jan 4;46(D1):D608-17. PMID:29140435
Nucleic Acids Res. 2018 Jan 4;46(D1):D1074-D1082. PMID:29126136
Nucleic Acids Res., 45:D380-388 (2017).  PMID:27924025
Nucleic Acids Res. 2016 Jan 4;44(D1):D1202-13. PMID:26400175

>  <ROMol>  (150) 
<rdkit.Chem.rdchem.Mol object at 0x7c2906125540>

>  <Drug_like>  (150) 
True

$$$$
Gibberellin a97
     RDKit          2D

 26 29  0  0  0  0  0  0  0  0999 V2000
    3.6141    1.1003    0.0000 C   0  0  0  0  0  0  0  0  0  0  0  0
    2.1680    1.4988    0.0000 C   0  0  0  0  0  0  0  0  0  0  0  0
    1.1780    0.3688    0.0000 C   0  0  0  0  0  0  0  0  0  0  0  0
   -0.3120    0.4388    0.0000 C   0  0  0  0  0  0  0  0  0  0  0  0
    0.1880    2.2788    0.0000 C   0  0  0  0  0  0  0  0  0  0  0  0
    1.8980    2.9688    0.0000 C   0  0  0  0  0  0  0  0  0  0  0  0
    0.5780    3.6888    0.0000 C   0  0  0  0  0  0  0  0  0  0  0  0
   -0.8020    3.0988    0.0000 C   0  0  0  0  0  0  0  0  0  0  0  0
   -1.2020    1.6488    0.0000 C   0  0  0  0  0  0  0  0  0  0  0  0
   -2.6220    1.1888    0.0000 C   0  0  0  0  0  0  0  0  0  0  0  0
   -2.3138    4.1126    0.0000 C   0  0  0  0  0  0  0  0  0  0  0  0
   -3.9220    1.9388    0.0000 C   0  0  0  0  0  0  0  0  0  0  0  0
   -5.2220    1.1888    0.0000 C   0  0  0  0  0  0  0  0  0  0  0  0
   -5.2220   -0.3112    0.0000 C   0  0  0  0  0  0  0  0  0  0  0  0
   -3.9220   -1.0612    0.0000 C   0  0  0  0  0  0  0  0  0  0  0  0
   -5.8115   -3.3136    0.0000 C   0  0  0  0  0  0  0  0  0  0  0  0
   -2.6220   -0.3112    0.0000 C   0  0  0  0  0  0  0  0  0  0  0  0
   -1.2020   -0.7812    0.0000 C   0  0  0  0  0  0  0  0  0  0  0  0
   -2.0151   -2.5865    0.0000 C   0  0  0  0  0  0  0  0  0  0  0  0
   -3.5075   -2.7369    0.0000 O   0  0  0  0  0  0  0  0  0  0  0  0
   -0.2972   -4.9725    0.0000 O   0  0  0  0  0  0  0  0  0  0  0  0
   -2.9167   -3.8240    0.0000 C   0  0  0  0  0  0  0  0  0  0  0  0
   -1.4395   -4.0846    0.0000 O   0  0  0  0  0  0  0  0  0  0  0  0
   -4.4982   -5.7083    0.0000 O   0  0  0  0  0  0  0  0  0  0  0  0
   -5.7347    2.5985    0.0000 O   0  0  0  0  0  0  0  0  0  0  0  0
    3.1131    3.8483    0.0000 O   0  0  0  0  0  0  0  0  0  0  0  0
  1  2  2  0
  2  3  1  0
  4  3  1  6
  4  5  1  0
  5  6  1  0
  2  6  1  0
  6  7  1  0
  7  8  1  0
  8  9  1  0
  4  9  1  0
  9 10  1  0
 10 11  1  1
 10 12  1  0
 12 13  1  0
 13 14  1  0
 14 15  1  0
 15 16  1  1
 15 17  1  0
 10 17  1  0
 17 18  1  0
  4 18  1  0
 18 19  1  0
 19 20  2  0
 19 21  1  0
 15 22  1  0
 22 23  2  0
 22 24  1  0
 13 25  1  0
  6 26  1  1
M  END
>  <cdk:Title>  (151) 
Gibberellin a97

>  <1A2>  (151) 
N

>  <2A6>  (151) 
N

>  <2B6>  (151) 
N

>  <2C8>  (151) 
N

>  <2C9>  (151) 
N

>  <2C19>  (151) 
N

>  <2D6>  (151) 
N

>  <2E1>  (151) 
N

>  <3A4>  (151) 
N

>  <Citation>  (151) 
Nucleic Acids Res. 2018. Jan 4;46(D1):D608-17. PMID:29140435
Nucleic Acids Res. 2018 Jan 4;46(D1):D1074-D1082. PMID:29126136
Nucleic Acids Res., 45:D380-388 (2017).  PMID:27924025
Nucleic Acids Res. 2016 Jan 4;44(D1):D1202-13. PMID:26400175

>  <ROMol>  (151) 
<rdkit.Chem.rdchem.Mol object at 0x7c2906125690>

>  <Drug_like>  (151) 
True

$$$$
103992-91-2
     RDKit          2D

 44 47  0  0  0  0  0  0  0  0999 V2000
    0.6705   -1.3636    0.0000 C   0  0  0  0  0  0  0  0  0  0  0  0
    0.4610    0.6053    0.0000 C   0  0  0  0  0  0  0  0  0  0  0  0
    1.8910    0.1453    0.0000 C   0  0  0  0  0  0  0  0  0  0  0  0
    2.7710    1.3553    0.0000 C   0  0  0  0  0  0  0  0  0  0  0  0
    1.8910    2.5653    0.0000 C   0  0  0  0  0  0  0  0  0  0  0  0
    4.4381    4.0336    0.0000 C   0  0  0  0  0  0  0  0  0  0  0  0
    3.4344    6.7970    0.0000 C   0  0  0  0  0  0  0  0  0  0  0  0
    6.5677    2.8022    0.0000 C   0  0  0  0  0  0  0  0  0  0  0  0
    7.8672    3.5514    0.0000 C   0  0  0  0  0  0  0  0  0  0  0  0
    7.8682    5.0514    0.0000 C   0  0  0  0  0  0  0  0  0  0  0  0
    9.1677    5.8005    0.0000 C   0  0  0  0  0  0  0  0  0  0  0  0
   10.4663    5.0496    0.0000 C   0  0  0  0  0  0  0  0  0  0  0  0
    9.1687    7.3005    0.0000 C   0  0  0  0  0  0  0  0  0  0  0  0
    7.8702    8.0514    0.0000 O   0  0  0  0  0  0  0  0  0  0  0  0
   10.4683    8.0496    0.0000 O   0  0  0  0  0  0  0  0  0  0  0  0
    8.4560    0.5488    0.0000 O   0  0  0  0  0  0  0  0  0  0  0  0
    9.9334    0.8083    0.0000 C   0  0  0  0  0  0  0  0  0  0  0  0
   10.8968   -0.3414    0.0000 C   0  0  0  0  0  0  0  0  0  0  0  0
   10.4473    2.2175    0.0000 O   0  0  0  0  0  0  0  0  0  0  0  0
    0.4610    2.1053    0.0000 C   0  0  0  0  0  0  0  0  0  0  0  0
    0.7721    5.0288    0.0000 C   0  0  0  0  0  0  0  0  0  0  0  0
   -0.8390    2.8553    0.0000 C   0  0  0  0  0  0  0  0  0  0  0  0
   -2.1390    2.1053    0.0000 C   0  0  0  0  0  0  0  0  0  0  0  0
   -2.1390    0.6053    0.0000 C   0  0  0  0  0  0  0  0  0  0  0  0
   -0.8390   -0.1447    0.0000 C   0  0  0  0  0  0  0  0  0  0  0  0
   -0.8390   -1.6447    0.0000 C   0  0  0  0  0  0  0  0  0  0  0  0
   -2.1390   -2.3947    0.0000 C   0  0  0  0  0  0  0  0  0  0  0  0
   -3.4390   -1.6447    0.0000 C   0  0  0  0  0  0  0  0  0  0  0  0
   -3.4390   -0.1447    0.0000 C   0  0  0  0  0  0  0  0  0  0  0  0
   -3.4390    1.3553    0.0000 C   0  0  0  0  0  0  0  0  0  0  0  0
   -4.7390    0.6053    0.0000 C   0  0  0  0  0  0  0  0  0  0  0  0
   -6.0390   -0.1447    0.0000 C   0  0  0  0  0  0  0  0  0  0  0  0
   -6.0390   -1.6447    0.0000 C   0  0  0  0  0  0  0  0  0  0  0  0
   -7.5162   -1.3844    0.0000 O   0  0  0  0  0  0  0  0  0  0  0  0
   -8.4803   -2.5336    0.0000 C   0  0  0  0  0  0  0  0  0  0  0  0
   -7.9671   -3.9430    0.0000 O   0  0  0  0  0  0  0  0  0  0  0  0
   -9.9575   -2.2732    0.0000 C   0  0  0  0  0  0  0  0  0  0  0  0
   -4.7390   -2.3947    0.0000 C   0  0  0  0  0  0  0  0  0  0  0  0
   -6.3201   -4.2793    0.0000 C   0  0  0  0  0  0  0  0  0  0  0  0
   -3.7338   -5.1575    0.0000 C   0  0  0  0  0  0  0  0  0  0  0  0
    1.2834   -1.2261    0.0000 O   0  0  0  0  0  0  0  0  0  0  0  0
    2.1672   -2.4381    0.0000 C   0  0  0  0  0  0  0  0  0  0  0  0
    3.6587   -2.2786    0.0000 O   0  0  0  0  0  0  0  0  0  0  0  0
    1.5596   -3.8095    0.0000 C   0  0  0  0  0  0  0  0  0  0  0  0
  2  1  1  1
  2  3  1  0
  3  4  1  0
  4  5  1  0
  5  6  1  0
  6  7  1  0
  6  8  1  0
  8  9  1  0
  9 10  1  0
 10 11  2  0
 11 12  1  0
 11 13  1  0
 13 14  2  0
 13 15  1  0
  8 16  1  0
 16 17  1  0
 17 18  1  0
 17 19  2  0
  5 20  1  0
  2 20  1  0
 20 21  1  1
 20 22  1  0
 22 23  1  0
 23 24  2  0
 24 25  1  0
  2 25  1  0
 25 26  2  0
 26 27  1  0
 27 28  1  0
 28 29  1  0
 24 29  1  0
 29 30  1  6
 29 31  1  0
 31 32  1  0
 32 33  1  0
 33 34  1  0
 34 35  1  0
 35 36  2  0
 35 37  1  0
 33 38  1  0
 28 38  1  0
 38 39  1  0
 38 40  1  0
  3 41  1  0
 41 42  1  0
 42 43  2  0
 42 44  1  0
M  END
>  <cdk:Title>  (152) 
103992-91-2

>  <1A2>  (152) 
N

>  <2A6>  (152) 
N

>  <2B6>  (152) 
N

>  <2C8>  (152) 
N

>  <2C9>  (152) 
N

>  <2C19>  (152) 
N

>  <2D6>  (152) 
N

>  <2E1>  (152) 
N

>  <3A4>  (152) 
N

>  <Citation>  (152) 
Nucleic Acids Res. 2018. Jan 4;46(D1):D608-17. PMID:29140435
Nucleic Acids Res. 2018 Jan 4;46(D1):D1074-D1082. PMID:29126136
Nucleic Acids Res., 45:D380-388 (2017).  PMID:27924025
Nucleic Acids Res. 2016 Jan 4;44(D1):D1202-13. PMID:26400175

>  <ROMol>  (152) 
<rdkit.Chem.rdchem.Mol object at 0x7c2906125770>

>  <Drug_like>  (152) 
True

$$$$
Quassin
     RDKit          2D

 28 31  0  0  0  0  0  0  0  0999 V2000
   -4.0954   -4.0482    0.0000 C   0  0  0  0  0  0  0  0  0  0  0  0
   -3.1291   -2.9009    0.0000 C   0  0  0  0  0  0  0  0  0  0  0  0
   -4.4291   -2.1409    0.0000 C   0  0  0  0  0  0  0  0  0  0  0  0
   -4.4291   -0.6409    0.0000 C   0  0  0  0  0  0  0  0  0  0  0  0
   -3.1291    0.1091    0.0000 C   0  0  0  0  0  0  0  0  0  0  0  0
   -1.8991   -0.6409    0.0000 C   0  0  0  0  0  0  0  0  0  0  0  0
   -1.3087    2.2392    0.0000 C   0  0  0  0  0  0  0  0  0  0  0  0
   -1.8291   -2.1409    0.0000 C   0  0  0  0  0  0  0  0  0  0  0  0
   -0.5391   -2.9109    0.0000 C   0  0  0  0  0  0  0  0  0  0  0  0
    0.7609   -2.1509    0.0000 C   0  0  0  0  0  0  0  0  0  0  0  0
    0.7609   -0.6609    0.0000 C   0  0  0  0  0  0  0  0  0  0  0  0
    1.2578   -3.5586    0.0000 C   0  0  0  0  0  0  0  0  0  0  0  0
    2.0709    0.0791    0.0000 C   0  0  0  0  0  0  0  0  0  0  0  0
    3.3609   -0.6709    0.0000 C   0  0  0  0  0  0  0  0  0  0  0  0
    3.3509   -2.1709    0.0000 C   0  0  0  0  0  0  0  0  0  0  0  0
    4.6451   -2.9292    0.0000 O   0  0  0  0  0  0  0  0  0  0  0  0
    2.0509   -2.9109    0.0000 O   0  0  0  0  0  0  0  0  0  0  0  0
    2.0009    1.5791    0.0000 C   0  0  0  0  0  0  0  0  0  0  0  0
    3.2964    2.3352    0.0000 C   0  0  0  0  0  0  0  0  0  0  0  0
    0.7909    2.3391    0.0000 C   0  0  0  0  0  0  0  0  0  0  0  0
   -0.5091    1.5991    0.0000 C   0  0  0  0  0  0  0  0  0  0  0  0
   -0.5191    0.0991    0.0000 C   0  0  0  0  0  0  0  0  0  0  0  0
   -3.0458    3.0853    0.0000 O   0  0  0  0  0  0  0  0  0  0  0  0
    0.8234    3.8387    0.0000 O   0  0  0  0  0  0  0  0  0  0  0  0
   -0.4591    4.6167    0.0000 C   0  0  0  0  0  0  0  0  0  0  0  0
   -3.1109    1.6090    0.0000 O   0  0  0  0  0  0  0  0  0  0  0  0
   -5.7280    0.1093    0.0000 O   0  0  0  0  0  0  0  0  0  0  0  0
   -7.0272   -0.6405    0.0000 C   0  0  0  0  0  0  0  0  0  0  0  0
  1  2  1  0
  2  3  1  0
  3  4  2  0
  4  5  1  0
  5  6  1  0
  6  7  1  6
  6  8  1  0
  2  8  1  0
  8  9  1  0
  9 10  1  0
 10 11  1  0
 11 12  1  1
 11 13  1  0
 13 14  1  0
 14 15  1  0
 15 16  2  0
 15 17  1  0
 10 17  1  0
 13 18  1  0
 18 19  1  0
 18 20  2  0
 20 21  1  0
 21 22  1  0
 11 22  1  0
  6 22  1  0
 21 23  2  0
 20 24  1  0
 24 25  1  0
  5 26  2  0
  4 27  1  0
 27 28  1  0
M  END
>  <cdk:Title>  (153) 
Quassin

>  <1A2>  (153) 
N

>  <2A6>  (153) 
N

>  <2B6>  (153) 
N

>  <2C8>  (153) 
N

>  <2C9>  (153) 
N

>  <2C19>  (153) 
N

>  <2D6>  (153) 
N

>  <2E1>  (153) 
N

>  <3A4>  (153) 
N

>  <Citation>  (153) 
Nucleic Acids Res. 2018. Jan 4;46(D1):D608-17. PMID:29140435
Nucleic Acids Res. 2018 Jan 4;46(D1):D1074-D1082. PMID:29126136
Nucleic Acids Res., 45:D380-388 (2017).  PMID:27924025
Nucleic Acids Res. 2016 Jan 4;44(D1):D1202-13. PMID:26400175

>  <ROMol>  (153) 
<rdkit.Chem.rdchem.Mol object at 0x7c29061258c0>

>  <Drug_like>  (153) 
True

$$$$
Oxypinnatanine
     RDKit          2D

 18 18  0  0  0  0  0  0  0  0999 V2000
   -0.1221    3.5330    0.0000 C   0  0  0  0  0  0  0  0  0  0  0  0
    0.9862    2.5332    0.0000 C   0  0  0  0  0  0  0  0  0  0  0  0
    0.3833    1.1574    0.0000 O   0  0  0  0  0  0  0  0  0  0  0  0
   -1.1096    1.3232    0.0000 C   0  0  0  0  0  0  0  0  0  0  0  0
   -1.4212    2.7830    0.0000 C   0  0  0  0  0  0  0  0  0  0  0  0
   -2.7918    3.3925    0.0000 C   0  0  0  0  0  0  0  0  0  0  0  0
   -4.0049    2.5102    0.0000 O   0  0  0  0  0  0  0  0  0  0  0  0
   -2.6016    1.1685    0.0000 N   0  0  0  0  0  0  0  0  0  0  0  0
   -3.2135   -0.2010    0.0000 C   0  0  0  0  0  0  0  0  0  0  0  0
   -4.7055   -0.3558    0.0000 C   0  0  0  0  0  0  0  0  0  0  0  0
   -5.3175   -1.7253    0.0000 C   0  0  0  0  0  0  0  0  0  0  0  0
   -6.8095   -1.8800    0.0000 C   0  0  0  0  0  0  0  0  0  0  0  0
   -7.6895   -0.6653    0.0000 C   0  0  0  0  0  0  0  0  0  0  0  0
   -7.0775    0.7042    0.0000 O   0  0  0  0  0  0  0  0  0  0  0  0
   -9.1815   -0.8201    0.0000 O   0  0  0  0  0  0  0  0  0  0  0  0
   -6.2663   -3.7841    0.0000 N   0  0  0  0  0  0  0  0  0  0  0  0
   -4.5988    1.1404    0.0000 O   0  0  0  0  0  0  0  0  0  0  0  0
   -2.3335   -1.4158    0.0000 O   0  0  0  0  0  0  0  0  0  0  0  0
  1  2  1  0
  2  3  1  0
  3  4  1  0
  4  5  1  0
  1  5  2  0
  5  6  1  0
  6  7  1  0
  4  8  1  0
  8  9  2  0
  9 10  1  0
 10 11  1  0
 11 12  1  0
 12 13  1  0
 13 14  2  0
 13 15  1  0
 12 16  1  0
 10 17  1  0
  9 18  1  0
M  END
>  <cdk:Title>  (154) 
Oxypinnatanine

>  <1A2>  (154) 
N

>  <2A6>  (154) 
N

>  <2B6>  (154) 
N

>  <2C8>  (154) 
N

>  <2C9>  (154) 
N

>  <2C19>  (154) 
N

>  <2D6>  (154) 
N

>  <2E1>  (154) 
N

>  <3A4>  (154) 
N

>  <Citation>  (154) 
Nucleic Acids Res. 2018. Jan 4;46(D1):D608-17. PMID:29140435
Nucleic Acids Res. 2018 Jan 4;46(D1):D1074-D1082. PMID:29126136
Nucleic Acids Res., 45:D380-388 (2017).  PMID:27924025
Nucleic Acids Res. 2016 Jan 4;44(D1):D1202-13. PMID:26400175

>  <ROMol>  (154) 
<rdkit.Chem.rdchem.Mol object at 0x7c2906125930>

>  <Drug_like>  (154) 
True

$$$$
Lucidone b
     RDKit          2D

 29 32  0  0  0  0  0  0  0  0999 V2000
    4.5057    5.1647    0.0000 C   0  0  0  0  0  0  0  0  0  0  0  0
    3.2071    5.9155    0.0000 C   0  0  0  0  0  0  0  0  0  0  0  0
    1.4917    4.9266    0.0000 C   0  0  0  0  0  0  0  0  0  0  0  0
    2.3717    3.7166    0.0000 C   0  0  0  0  0  0  0  0  0  0  0  0
    1.4917    2.5066    0.0000 C   0  0  0  0  0  0  0  0  0  0  0  0
    0.0617    2.9666    0.0000 C   0  0  0  0  0  0  0  0  0  0  0  0
    0.8758    0.1416    0.0000 C   0  0  0  0  0  0  0  0  0  0  0  0
   -1.2383    2.2166    0.0000 C   0  0  0  0  0  0  0  0  0  0  0  0
   -1.2383    0.7166    0.0000 C   0  0  0  0  0  0  0  0  0  0  0  0
   -2.5383   -0.0334    0.0000 C   0  0  0  0  0  0  0  0  0  0  0  0
   -3.8383    0.7166    0.0000 C   0  0  0  0  0  0  0  0  0  0  0  0
   -5.1383   -0.0334    0.0000 C   0  0  0  0  0  0  0  0  0  0  0  0
   -7.0278   -2.2857    0.0000 C   0  0  0  0  0  0  0  0  0  0  0  0
   -3.2487   -2.2857    0.0000 C   0  0  0  0  0  0  0  0  0  0  0  0
   -6.4383    0.7166    0.0000 C   0  0  0  0  0  0  0  0  0  0  0  0
   -6.4383    2.2166    0.0000 C   0  0  0  0  0  0  0  0  0  0  0  0
   -5.1383    2.9666    0.0000 C   0  0  0  0  0  0  0  0  0  0  0  0
   -3.8383    2.2166    0.0000 C   0  0  0  0  0  0  0  0  0  0  0  0
   -3.8383    4.6766    0.0000 C   0  0  0  0  0  0  0  0  0  0  0  0
   -2.5383    2.9666    0.0000 C   0  0  0  0  0  0  0  0  0  0  0  0
   -2.5383    4.4666    0.0000 C   0  0  0  0  0  0  0  0  0  0  0  0
   -1.2383    5.2166    0.0000 C   0  0  0  0  0  0  0  0  0  0  0  0
    0.0617    4.4666    0.0000 C   0  0  0  0  0  0  0  0  0  0  0  0
    0.3729    7.3901    0.0000 C   0  0  0  0  0  0  0  0  0  0  0  0
   -3.8372    5.2169    0.0000 O   0  0  0  0  0  0  0  0  0  0  0  0
   -7.7372   -0.0336    0.0000 O   0  0  0  0  0  0  0  0  0  0  0  0
   -0.7284   -2.1788    0.0000 O   0  0  0  0  0  0  0  0  0  0  0  0
    1.9570    1.0806    0.0000 O   0  0  0  0  0  0  0  0  0  0  0  0
    3.2081    7.4155    0.0000 O   0  0  0  0  0  0  0  0  0  0  0  0
  1  2  1  0
  2  3  1  0
  3  4  1  0
  4  5  1  0
  5  6  1  0
  6  7  1  6
  6  8  1  0
  8  9  1  0
  9 10  1  0
 10 11  1  0
 11 12  1  0
 12 13  1  0
 12 14  1  0
 12 15  1  0
 15 16  1  0
 16 17  1  0
 17 18  1  0
 11 18  1  0
 18 19  1  1
 18 20  1  0
  8 20  2  0
 20 21  1  0
 21 22  1  0
 22 23  1  0
  3 23  1  0
  6 23  1  0
 23 24  1  6
 21 25  2  0
 15 26  2  0
  9 27  1  0
  5 28  2  0
  2 29  2  0
M  END
>  <cdk:Title>  (155) 
Lucidone b

>  <1A2>  (155) 
N

>  <2A6>  (155) 
N

>  <2B6>  (155) 
N

>  <2C8>  (155) 
N

>  <2C9>  (155) 
N

>  <2C19>  (155) 
N

>  <2D6>  (155) 
N

>  <2E1>  (155) 
N

>  <3A4>  (155) 
N

>  <Citation>  (155) 
Nucleic Acids Res. 2018. Jan 4;46(D1):D608-17. PMID:29140435
Nucleic Acids Res. 2018 Jan 4;46(D1):D1074-D1082. PMID:29126136
Nucleic Acids Res., 45:D380-388 (2017).  PMID:27924025
Nucleic Acids Res. 2016 Jan 4;44(D1):D1202-13. PMID:26400175

>  <ROMol>  (155) 
<rdkit.Chem.rdchem.Mol object at 0x7c2906125af0>

>  <Drug_like>  (155) 
True

$$$$
Wyerol
     RDKit          2D

 19 19  0  0  0  0  0  0  0  0999 V2000
   -4.0324    3.6344    0.0000 C   0  0  0  0  0  0  0  0  0  0  0  0
   -2.6064    4.0997    0.0000 C   0  0  0  0  0  0  0  0  0  0  0  0
   -2.2963    5.5673    0.0000 C   0  0  0  0  0  0  0  0  0  0  0  0
   -0.8703    6.0326    0.0000 C   0  0  0  0  0  0  0  0  0  0  0  0
    0.2457    5.0303    0.0000 C   0  0  0  0  0  0  0  0  0  0  0  0
    1.3616    4.0279    0.0000 C   0  0  0  0  0  0  0  0  0  0  0  0
    2.4776    3.0256    0.0000 C   0  0  0  0  0  0  0  0  0  0  0  0
    3.9036    3.4909    0.0000 C   0  0  0  0  0  0  0  0  0  0  0  0
    5.1184    2.6074    0.0000 C   0  0  0  0  0  0  0  0  0  0  0  0
    6.3298    3.4920    0.0000 C   0  0  0  0  0  0  0  0  0  0  0  0
    5.8579    4.9181    0.0000 C   0  0  0  0  0  0  0  0  0  0  0  0
    6.7351    6.1349    0.0000 C   0  0  0  0  0  0  0  0  0  0  0  0
    6.1200    7.5030    0.0000 C   0  0  0  0  0  0  0  0  0  0  0  0
    4.6276    7.6543    0.0000 C   0  0  0  0  0  0  0  0  0  0  0  0
    3.7504    6.4375    0.0000 O   0  0  0  0  0  0  0  0  0  0  0  0
    4.0124    9.0223    0.0000 O   0  0  0  0  0  0  0  0  0  0  0  0
    2.5201    9.1736    0.0000 C   0  0  0  0  0  0  0  0  0  0  0  0
    4.3617    4.9152    0.0000 O   0  0  0  0  0  0  0  0  0  0  0  0
    3.1834    1.7021    0.0000 O   0  0  0  0  0  0  0  0  0  0  0  0
  1  2  1  0
  2  3  1  0
  3  4  2  0
  4  5  1  0
  5  6  3  0
  6  7  1  0
  7  8  1  0
  8  9  2  0
  9 10  1  0
 10 11  2  0
 11 12  1  0
 12 13  2  0
 13 14  1  0
 14 15  2  0
 14 16  1  0
 16 17  1  0
 11 18  1  0
  8 18  1  0
  7 19  1  0
M  END
>  <cdk:Title>  (156) 
Wyerol

>  <1A2>  (156) 
N

>  <2A6>  (156) 
N

>  <2B6>  (156) 
N

>  <2C8>  (156) 
N

>  <2C9>  (156) 
N

>  <2C19>  (156) 
N

>  <2D6>  (156) 
N

>  <2E1>  (156) 
N

>  <3A4>  (156) 
N

>  <Citation>  (156) 
Nucleic Acids Res. 2018. Jan 4;46(D1):D608-17. PMID:29140435
Nucleic Acids Res. 2018 Jan 4;46(D1):D1074-D1082. PMID:29126136
Nucleic Acids Res., 45:D380-388 (2017).  PMID:27924025
Nucleic Acids Res. 2016 Jan 4;44(D1):D1202-13. PMID:26400175

>  <ROMol>  (156) 
<rdkit.Chem.rdchem.Mol object at 0x7c2906125b60>

>  <Drug_like>  (156) 
True

$$$$
Cascarillin
     RDKit          2D

 29 31  0  0  0  0  0  0  0  0999 V2000
    5.2371    1.5076    0.0000 C   0  0  0  0  0  0  0  0  0  0  0  0
    2.8144    1.9345    0.0000 C   0  0  0  0  0  0  0  0  0  0  0  0
    2.8144    0.4345    0.0000 C   0  0  0  0  0  0  0  0  0  0  0  0
    1.5144   -0.3155    0.0000 C   0  0  0  0  0  0  0  0  0  0  0  0
    0.2144    0.4345    0.0000 C   0  0  0  0  0  0  0  0  0  0  0  0
    0.2144   -2.5055    0.0000 C   0  0  0  0  0  0  0  0  0  0  0  0
    0.2144    1.9345    0.0000 C   0  0  0  0  0  0  0  0  0  0  0  0
   -1.0856    2.6845    0.0000 C   0  0  0  0  0  0  0  0  0  0  0  0
   -2.3856    1.9345    0.0000 C   0  0  0  0  0  0  0  0  0  0  0  0
   -2.3856    0.4345    0.0000 C   0  0  0  0  0  0  0  0  0  0  0  0
   -1.0856   -0.3155    0.0000 C   0  0  0  0  0  0  0  0  0  0  0  0
   -2.9752   -2.5678    0.0000 C   0  0  0  0  0  0  0  0  0  0  0  0
   -0.1216   -1.4646    0.0000 O   0  0  0  0  0  0  0  0  0  0  0  0
   -3.8629    0.6948    0.0000 O   0  0  0  0  0  0  0  0  0  0  0  0
    1.5144    2.6845    0.0000 C   0  0  0  0  0  0  0  0  0  0  0  0
    3.4039    4.9369    0.0000 C   0  0  0  0  0  0  0  0  0  0  0  0
    2.5623    7.2485    0.0000 C   0  0  0  0  0  0  0  0  0  0  0  0
    3.5264    8.3976    0.0000 C   0  0  0  0  0  0  0  0  0  0  0  0
    5.0022    8.2858    0.0000 C   0  0  0  0  0  0  0  0  0  0  0  0
    5.5881    9.6655    0.0000 C   0  0  0  0  0  0  0  0  0  0  0  0
    4.4280   10.6359    0.0000 O   0  0  0  0  0  0  0  0  0  0  0  0
    3.1550    9.8498    0.0000 C   0  0  0  0  0  0  0  0  0  0  0  0
    1.5980    8.3974    0.0000 O   0  0  0  0  0  0  0  0  0  0  0  0
    0.7645    3.9836    0.0000 C   0  0  0  0  0  0  0  0  0  0  0  0
    1.5147    5.2826    0.0000 O   0  0  0  0  0  0  0  0  0  0  0  0
    3.3271   -0.9751    0.0000 O   0  0  0  0  0  0  0  0  0  0  0  0
    4.8043   -1.2359    0.0000 C   0  0  0  0  0  0  0  0  0  0  0  0
    5.3170   -2.6456    0.0000 C   0  0  0  0  0  0  0  0  0  0  0  0
    5.7687   -0.0870    0.0000 O   0  0  0  0  0  0  0  0  0  0  0  0
  1  2  1  0
  2  3  1  0
  3  4  1  0
  4  5  1  0
  5  6  1  6
  5  7  1  0
  7  8  1  0
  8  9  1  0
  9 10  1  0
 10 11  1  0
  5 11  1  0
 11 12  1  1
 11 13  1  0
 10 14  1  0
  7 15  1  0
  2 15  1  0
 15 16  1  6
 16 17  1  0
 17 18  1  0
 18 19  1  0
 19 20  2  0
 20 21  1  0
 21 22  1  0
 18 22  2  0
 17 23  1  0
 15 24  1  0
 24 25  2  0
  3 26  1  0
 26 27  1  0
 27 28  1  0
 27 29  2  0
M  END
>  <cdk:Title>  (157) 
Cascarillin

>  <1A2>  (157) 
N

>  <2A6>  (157) 
N

>  <2B6>  (157) 
N

>  <2C8>  (157) 
N

>  <2C9>  (157) 
N

>  <2C19>  (157) 
N

>  <2D6>  (157) 
N

>  <2E1>  (157) 
N

>  <3A4>  (157) 
N

>  <Citation>  (157) 
Nucleic Acids Res. 2018. Jan 4;46(D1):D608-17. PMID:29140435
Nucleic Acids Res. 2018 Jan 4;46(D1):D1074-D1082. PMID:29126136
Nucleic Acids Res., 45:D380-388 (2017).  PMID:27924025
Nucleic Acids Res. 2016 Jan 4;44(D1):D1202-13. PMID:26400175

>  <ROMol>  (157) 
<rdkit.Chem.rdchem.Mol object at 0x7c2906125bd0>

>  <Drug_like>  (157) 
True

$$$$
13-cis-Crocin4
     RDKit          2D

 36 36  0  0  0  0  0  0  0  0999 V2000
    7.8662   -1.1805    0.0000 C   0  0  0  0  0  0  0  0  0  0  0  0
    8.8277   -0.0292    0.0000 C   0  0  0  0  0  0  0  0  0  0  0  0
   10.3055   -0.2863    0.0000 C   0  0  0  0  0  0  0  0  0  0  0  0
   10.8218   -1.6947    0.0000 C   0  0  0  0  0  0  0  0  0  0  0  0
   12.2996   -1.9517    0.0000 C   0  0  0  0  0  0  0  0  0  0  0  0
   12.8159   -3.3601    0.0000 C   0  0  0  0  0  0  0  0  0  0  0  0
   14.2937   -3.6172    0.0000 C   0  0  0  0  0  0  0  0  0  0  0  0
   14.8100   -5.0255    0.0000 C   0  0  0  0  0  0  0  0  0  0  0  0
   15.2552   -2.4659    0.0000 C   0  0  0  0  0  0  0  0  0  0  0  0
   16.7330   -2.7230    0.0000 C   0  0  0  0  0  0  0  0  0  0  0  0
   17.6946   -1.5717    0.0000 C   0  0  0  0  0  0  0  0  0  0  0  0
   19.1724   -1.8288    0.0000 C   0  0  0  0  0  0  0  0  0  0  0  0
   19.6886   -3.2371    0.0000 C   0  0  0  0  0  0  0  0  0  0  0  0
   20.1339   -0.6775    0.0000 C   0  0  0  0  0  0  0  0  0  0  0  0
   19.6176    0.7309    0.0000 O   0  0  0  0  0  0  0  0  0  0  0  0
   21.6117   -0.9345    0.0000 O   0  0  0  0  0  0  0  0  0  0  0  0
   22.5732    0.2167    0.0000 C   0  0  0  0  0  0  0  0  0  0  0  0
   23.5362   -0.9202    0.0000 C   0  0  0  0  0  0  0  0  0  0  0  0
   25.0347   -0.6471    0.0000 C   0  0  0  0  0  0  0  0  0  0  0  0
   25.5355    0.7731    0.0000 C   0  0  0  0  0  0  0  0  0  0  0  0
   24.5725    1.9101    0.0000 C   0  0  0  0  0  0  0  0  0  0  0  0
   24.0527    3.3171    0.0000 C   0  0  0  0  0  0  0  0  0  0  0  0
   25.0113    4.4708    0.0000 O   0  0  0  0  0  0  0  0  0  0  0  0
   23.0958    1.6422    0.0000 O   0  0  0  0  0  0  0  0  0  0  0  0
   26.4923    1.9283    0.0000 O   0  0  0  0  0  0  0  0  0  0  0  0
   26.5141   -0.8948    0.0000 O   0  0  0  0  0  0  0  0  0  0  0  0
   24.0569   -2.3270    0.0000 O   0  0  0  0  0  0  0  0  0  0  0  0
    8.3114    1.3791    0.0000 C   0  0  0  0  0  0  0  0  0  0  0  0
    6.8336    1.6362    0.0000 C   0  0  0  0  0  0  0  0  0  0  0  0
    6.3174    3.0445    0.0000 C   0  0  0  0  0  0  0  0  0  0  0  0
    4.8396    3.3016    0.0000 C   0  0  0  0  0  0  0  0  0  0  0  0
    4.3233    4.7100    0.0000 C   0  0  0  0  0  0  0  0  0  0  0  0
    3.8780    2.1503    0.0000 C   0  0  0  0  0  0  0  0  0  0  0  0
    4.3943    0.7420    0.0000 O   0  0  0  0  0  0  0  0  0  0  0  0
    2.4002    2.4074    0.0000 O   0  0  0  0  0  0  0  0  0  0  0  0
    1.4387    1.2561    0.0000 C   0  0  0  0  0  0  0  0  0  0  0  0
  1  2  1  0
  2  3  2  0
  3  4  1  0
  4  5  2  0
  5  6  1  0
  6  7  2  0
  7  8  1  0
  7  9  1  0
  9 10  2  0
 10 11  1  0
 11 12  2  0
 12 13  1  0
 12 14  1  0
 14 15  2  0
 14 16  1  0
 16 17  1  0
 17 18  1  0
 18 19  1  0
 19 20  1  0
 20 21  1  0
 21 22  1  0
 22 23  1  0
 21 24  1  0
 17 24  1  0
 20 25  1  0
 19 26  1  0
 18 27  1  0
  2 28  1  0
 28 29  2  0
 29 30  1  0
 30 31  2  0
 31 32  1  0
 31 33  1  0
 33 34  2  0
 33 35  1  0
 35 36  1  0
M  END
>  <cdk:Title>  (158) 
13-cis-Crocin4

>  <1A2>  (158) 
N

>  <2A6>  (158) 
N

>  <2B6>  (158) 
N

>  <2C8>  (158) 
N

>  <2C9>  (158) 
N

>  <2C19>  (158) 
N

>  <2D6>  (158) 
N

>  <2E1>  (158) 
N

>  <3A4>  (158) 
N

>  <Citation>  (158) 
Nucleic Acids Res. 2018. Jan 4;46(D1):D608-17. PMID:29140435
Nucleic Acids Res. 2018 Jan 4;46(D1):D1074-D1082. PMID:29126136
Nucleic Acids Res., 45:D380-388 (2017).  PMID:27924025
Nucleic Acids Res. 2016 Jan 4;44(D1):D1202-13. PMID:26400175

>  <ROMol>  (158) 
<rdkit.Chem.rdchem.Mol object at 0x7c2906125d20>

>  <Drug_like>  (158) 
True

$$$$
2_2_4-Trimethyldecane
     RDKit          2D

 13 12  0  0  0  0  0  0  0  0999 V2000
    0.3816    4.4916    0.0000 C   0  0  0  0  0  0  0  0  0  0  0  0
    1.8816    4.4916    0.0000 C   0  0  0  0  0  0  0  0  0  0  0  0
    2.6316    3.1926    0.0000 C   0  0  0  0  0  0  0  0  0  0  0  0
    5.0916    3.1926    0.0000 C   0  0  0  0  0  0  0  0  0  0  0  0
    6.0816    1.4778    0.0000 C   0  0  0  0  0  0  0  0  0  0  0  0
    8.0616    1.4778    0.0000 C   0  0  0  0  0  0  0  0  0  0  0  0
    9.2916   -0.6526    0.0000 C   0  0  0  0  0  0  0  0  0  0  0  0
    7.8821   -1.1656    0.0000 C   0  0  0  0  0  0  0  0  0  0  0  0
   12.2316   -0.6526    0.0000 C   0  0  0  0  0  0  0  0  0  0  0  0
   13.2216   -2.3673    0.0000 C   0  0  0  0  0  0  0  0  0  0  0  0
   15.2016   -2.3673    0.0000 C   0  0  0  0  0  0  0  0  0  0  0  0
   11.8121   -2.8803    0.0000 C   0  0  0  0  0  0  0  0  0  0  0  0
   13.7321   -5.2627    0.0000 C   0  0  0  0  0  0  0  0  0  0  0  0
  1  2  1  0
  2  3  1  0
  3  4  1  0
  4  5  1  0
  5  6  1  0
  6  7  1  0
  7  8  1  0
  7  9  1  0
  9 10  1  0
 10 11  1  0
 10 12  1  0
 10 13  1  0
M  END
>  <cdk:Title>  (159) 
2_2_4-Trimethyldecane

>  <1A2>  (159) 
N

>  <2A6>  (159) 
N

>  <2B6>  (159) 
N

>  <2C8>  (159) 
N

>  <2C9>  (159) 
N

>  <2C19>  (159) 
N

>  <2D6>  (159) 
N

>  <2E1>  (159) 
N

>  <3A4>  (159) 
N

>  <Citation>  (159) 
Nucleic Acids Res. 2018. Jan 4;46(D1):D608-17. PMID:29140435
Nucleic Acids Res. 2018 Jan 4;46(D1):D1074-D1082. PMID:29126136
Nucleic Acids Res., 45:D380-388 (2017).  PMID:27924025
Nucleic Acids Res. 2016 Jan 4;44(D1):D1202-13. PMID:26400175

>  <ROMol>  (159) 
<rdkit.Chem.rdchem.Mol object at 0x7c2906125e00>

>  <Drug_like>  (159) 
True

$$$$
11(12)-EpETrE-ea
     RDKit          2D

 26 26  0  0  0  0  0  0  0  0999 V2000
   -4.2509   -0.8451    0.0000 O   0  0  0  0  0  0  0  0  0  0  0  0
   -3.7386    0.5647    0.0000 C   0  0  0  0  0  0  0  0  0  0  0  0
   -2.2615    0.8260    0.0000 C   0  0  0  0  0  0  0  0  0  0  0  0
   -1.7492    2.2358    0.0000 N   0  0  0  0  0  0  0  0  0  0  0  0
   -0.2722    2.4971    0.0000 C   0  0  0  0  0  0  0  0  0  0  0  0
    0.6926    1.3485    0.0000 O   0  0  0  0  0  0  0  0  0  0  0  0
    0.2401    3.9069    0.0000 C   0  0  0  0  0  0  0  0  0  0  0  0
    1.7172    4.1681    0.0000 C   0  0  0  0  0  0  0  0  0  0  0  0
    2.5573    6.4802    0.0000 C   0  0  0  0  0  0  0  0  0  0  0  0
    4.9797    6.9087    0.0000 C   0  0  0  0  0  0  0  0  0  0  0  0
    6.5620    5.0251    0.0000 C   0  0  0  0  0  0  0  0  0  0  0  0
    6.0497    3.6153    0.0000 C   0  0  0  0  0  0  0  0  0  0  0  0
    7.0145    2.4667    0.0000 C   0  0  0  0  0  0  0  0  0  0  0  0
    8.4916    2.7280    0.0000 C   0  0  0  0  0  0  0  0  0  0  0  0
    9.0038    4.1378    0.0000 C   0  0  0  0  0  0  0  0  0  0  0  0
   10.9536    4.4827    0.0000 C   0  0  0  0  0  0  0  0  0  0  0  0
   11.4672    3.0733    0.0000 C   0  0  0  0  0  0  0  0  0  0  0  0
   12.4316    1.9245    0.0000 C   0  0  0  0  0  0  0  0  0  0  0  0
   14.3815    2.2687    0.0000 C   0  0  0  0  0  0  0  0  0  0  0  0
   14.8942    3.6784    0.0000 C   0  0  0  0  0  0  0  0  0  0  0  0
   13.9298    4.8272    0.0000 C   0  0  0  0  0  0  0  0  0  0  0  0
   14.4425    6.2369    0.0000 C   0  0  0  0  0  0  0  0  0  0  0  0
   16.3924    6.5811    0.0000 C   0  0  0  0  0  0  0  0  0  0  0  0
   16.9051    7.9908    0.0000 C   0  0  0  0  0  0  0  0  0  0  0  0
   18.3822    8.2516    0.0000 C   0  0  0  0  0  0  0  0  0  0  0  0
   12.4318    4.2231    0.0000 O   0  0  0  0  0  0  0  0  0  0  0  0
  1  2  1  0
  2  3  1  0
  3  4  1  0
  4  5  1  0
  5  6  2  0
  5  7  1  0
  7  8  1  0
  8  9  1  0
  9 10  1  0
 10 11  2  0
 11 12  1  0
 12 13  1  0
 13 14  2  0
 14 15  1  0
 15 16  1  0
 16 17  1  0
 17 18  1  0
 18 19  1  0
 19 20  2  0
 20 21  1  0
 21 22  1  0
 22 23  1  0
 23 24  1  0
 24 25  1  0
 17 26  1  0
 16 26  1  0
M  END
>  <cdk:Title>  (160) 
11(12)-EpETrE-ea

>  <1A2>  (160) 
N

>  <2A6>  (160) 
N

>  <2B6>  (160) 
N

>  <2C8>  (160) 
N

>  <2C9>  (160) 
N

>  <2C19>  (160) 
N

>  <2D6>  (160) 
N

>  <2E1>  (160) 
N

>  <3A4>  (160) 
N

>  <Citation>  (160) 
Nucleic Acids Res. 2018. Jan 4;46(D1):D608-17. PMID:29140435
Nucleic Acids Res. 2018 Jan 4;46(D1):D1074-D1082. PMID:29126136
Nucleic Acids Res., 45:D380-388 (2017).  PMID:27924025
Nucleic Acids Res. 2016 Jan 4;44(D1):D1202-13. PMID:26400175

>  <ROMol>  (160) 
<rdkit.Chem.rdchem.Mol object at 0x7c2906125e70>

>  <Drug_like>  (160) 
True

$$$$
(1S_2R_4R_5S_7S_11S_12S_15R_16S)-15-[(2S_3R_4R)-3_4-Dihydroxy-6-methyl-5-methyli
     RDKit          2D

 34 37  0  0  0  0  0  0  0  0999 V2000
    9.6274    6.5091    0.0000 C   0  0  0  0  0  0  0  0  0  0  0  0
    8.1500    6.2496    0.0000 C   0  0  0  0  0  0  0  0  0  0  0  0
    8.1510    7.7496    0.0000 C   0  0  0  0  0  0  0  0  0  0  0  0
    6.4346    5.2607    0.0000 C   0  0  0  0  0  0  0  0  0  0  0  0
    5.1361    6.0115    0.0000 C   0  0  0  0  0  0  0  0  0  0  0  0
    6.4336    3.7607    0.0000 C   0  0  0  0  0  0  0  0  0  0  0  0
    4.3024    2.5321    0.0000 C   0  0  0  0  0  0  0  0  0  0  0  0
    4.3008    0.0721    0.0000 C   0  0  0  0  0  0  0  0  0  0  0  0
    5.7782    0.3316    0.0000 C   0  0  0  0  0  0  0  0  0  0  0  0
    1.7537   -1.3962    0.0000 C   0  0  0  0  0  0  0  0  0  0  0  0
    2.6337   -2.6062    0.0000 C   0  0  0  0  0  0  0  0  0  0  0  0
    1.7537   -3.8162    0.0000 C   0  0  0  0  0  0  0  0  0  0  0  0
    0.3237   -3.3562    0.0000 C   0  0  0  0  0  0  0  0  0  0  0  0
   -0.9763   -4.1062    0.0000 C   0  0  0  0  0  0  0  0  0  0  0  0
   -0.7563   -5.5862    0.0000 C   0  0  0  0  0  0  0  0  0  0  0  0
   -1.7763   -6.6862    0.0000 O   0  0  0  0  0  0  0  0  0  0  0  0
   -3.2663   -6.5762    0.0000 C   0  0  0  0  0  0  0  0  0  0  0  0
   -4.1163   -5.3362    0.0000 C   0  0  0  0  0  0  0  0  0  0  0  0
   -5.5763   -5.6762    0.0000 C   0  0  0  0  0  0  0  0  0  0  0  0
   -6.5963   -4.5662    0.0000 C   0  0  0  0  0  0  0  0  0  0  0  0
   -6.1563   -3.1362    0.0000 C   0  0  0  0  0  0  0  0  0  0  0  0
   -4.6963   -2.8062    0.0000 C   0  0  0  0  0  0  0  0  0  0  0  0
   -3.6663   -3.9062    0.0000 C   0  0  0  0  0  0  0  0  0  0  0  0
   -2.9039   -2.0789    0.0000 C   0  0  0  0  0  0  0  0  0  0  0  0
   -2.2763   -3.3562    0.0000 C   0  0  0  0  0  0  0  0  0  0  0  0
   -2.2763   -1.8562    0.0000 C   0  0  0  0  0  0  0  0  0  0  0  0
   -0.9763   -1.1062    0.0000 C   0  0  0  0  0  0  0  0  0  0  0  0
    0.3237   -1.8562    0.0000 C   0  0  0  0  0  0  0  0  0  0  0  0
    0.5840    0.5900    0.0000 C   0  0  0  0  0  0  0  0  0  0  0  0
   -6.2293   -1.6380    0.0000 O   0  0  0  0  0  0  0  0  0  0  0  0
   -7.9303   -3.8804    0.0000 O   0  0  0  0  0  0  0  0  0  0  0  0
   -4.0140   -7.8766    0.0000 O   0  0  0  0  0  0  0  0  0  0  0  0
    2.8250    2.2726    0.0000 O   0  0  0  0  0  0  0  0  0  0  0  0
    7.9110    4.0202    0.0000 O   0  0  0  0  0  0  0  0  0  0  0  0
  1  2  1  0
  2  3  1  0
  2  4  1  0
  4  5  2  0
  4  6  1  0
  6  7  1  0
  7  8  1  0
  8  9  1  0
  8 10  1  0
 10 11  1  0
 11 12  1  0
 12 13  1  0
 13 14  1  0
 14 15  1  0
 15 16  1  0
 16 17  1  0
 17 18  1  0
 18 19  1  0
 19 20  1  0
 20 21  1  0
 21 22  1  0
 22 23  1  0
 18 23  1  0
 23 24  1  6
 23 25  1  0
 14 25  1  0
 25 26  1  0
 26 27  1  0
 27 28  1  0
 10 28  1  0
 13 28  1  0
 28 29  1  6
 21 30  1  0
 20 31  1  0
 17 32  2  0
  7 33  1  0
  6 34  1  0
M  END
>  <cdk:Title>  (161) 
(1S_2R_4R_5S_7S_11S_12S_15R_16S)-15-[(2S_3R_4R)-3_4-Dihydroxy-6-methyl-5-methylideneheptan-2-yl]-4_5-dihydroxy-2_16-dimethyl-9-oxatetracyclo[9.7.0.0??_???.0????_?????]octadecan-8-one

>  <1A2>  (161) 
N

>  <2A6>  (161) 
N

>  <2B6>  (161) 
N

>  <2C8>  (161) 
N

>  <2C9>  (161) 
N

>  <2C19>  (161) 
N

>  <2D6>  (161) 
N

>  <2E1>  (161) 
N

>  <3A4>  (161) 
N

>  <Citation>  (161) 
Nucleic Acids Res. 2018. Jan 4;46(D1):D608-17. PMID:29140435
Nucleic Acids Res. 2018 Jan 4;46(D1):D1074-D1082. PMID:29126136
Nucleic Acids Res., 45:D380-388 (2017).  PMID:27924025
Nucleic Acids Res. 2016 Jan 4;44(D1):D1202-13. PMID:26400175

>  <ROMol>  (161) 
<rdkit.Chem.rdchem.Mol object at 0x7c2906125ee0>

>  <Drug_like>  (161) 
True

$$$$
Chaetoglobosin N
     RDKit          2D

 40 45  0  0  0  0  0  0  0  0999 V2000
    8.5605    1.0886    0.0000 C   0  0  0  0  0  0  0  0  0  0  0  0
    8.3199   -0.3920    0.0000 C   0  0  0  0  0  0  0  0  0  0  0  0
    7.4188   -1.5911    0.0000 C   0  0  0  0  0  0  0  0  0  0  0  0
    6.0636   -2.2342    0.0000 C   0  0  0  0  0  0  0  0  0  0  0  0
    4.5648   -2.1738    0.0000 C   0  0  0  0  0  0  0  0  0  0  0  0
    3.2658   -1.4238    0.0000 C   0  0  0  0  0  0  0  0  0  0  0  0
    2.4641   -0.1560    0.0000 C   0  0  0  0  0  0  0  0  0  0  0  0
    2.3434    1.3391    0.0000 C   0  0  0  0  0  0  0  0  0  0  0  0
    2.9313    2.7191    0.0000 C   0  0  0  0  0  0  0  0  0  0  0  0
    4.0932    3.6678    0.0000 C   0  0  0  0  0  0  0  0  0  0  0  0
    5.5629    3.9678    0.0000 C   0  0  0  0  0  0  0  0  0  0  0  0
    7.0037    3.5505    0.0000 C   0  0  0  0  0  0  0  0  0  0  0  0
    8.4737    6.0966    0.0000 C   0  0  0  0  0  0  0  0  0  0  0  0
    8.0855    2.5114    0.0000 C   0  0  0  0  0  0  0  0  0  0  0  0
    5.6233    5.4666    0.0000 O   0  0  0  0  0  0  0  0  0  0  0  0
    3.4502    5.0230    0.0000 O   0  0  0  0  0  0  0  0  0  0  0  0
    1.0413   -0.6310    0.0000 O   0  0  0  0  0  0  0  0  0  0  0  0
    1.9667   -2.1738    0.0000 C   0  0  0  0  0  0  0  0  0  0  0  0
    1.9667   -3.6738    0.0000 C   0  0  0  0  0  0  0  0  0  0  0  0
    3.2658   -4.4238    0.0000 C   0  0  0  0  0  0  0  0  0  0  0  0
    4.5648   -3.6738    0.0000 C   0  0  0  0  0  0  0  0  0  0  0  0
    4.5648   -5.1738    0.0000 O   0  0  0  0  0  0  0  0  0  0  0  0
    2.5158   -5.7228    0.0000 C   0  0  0  0  0  0  0  0  0  0  0  0
    0.0168   -3.3299    0.0000 C   0  0  0  0  0  0  0  0  0  0  0  0
    0.8520   -1.1701    0.0000 C   0  0  0  0  0  0  0  0  0  0  0  0
    1.4621    0.2002    0.0000 N   0  0  0  0  0  0  0  0  0  0  0  0
    2.9539    0.0434    0.0000 C   0  0  0  0  0  0  0  0  0  0  0  0
    3.9576    1.1582    0.0000 O   0  0  0  0  0  0  0  0  0  0  0  0
   -1.6941    0.2999    0.0000 C   0  0  0  0  0  0  0  0  0  0  0  0
   -1.6941    2.7599    0.0000 C   0  0  0  0  0  0  0  0  0  0  0  0
   -3.9463   -1.5899    0.0000 C   0  0  0  0  0  0  0  0  0  0  0  0
   -3.8361   -3.0820    0.0000 C   0  0  0  0  0  0  0  0  0  0  0  0
   -5.2217   -3.6465    0.0000 N   0  0  0  0  0  0  0  0  0  0  0  0
   -6.1893   -2.4934    0.0000 C   0  0  0  0  0  0  0  0  0  0  0  0
   -5.3902   -1.2239    0.0000 C   0  0  0  0  0  0  0  0  0  0  0  0
   -6.0997    0.0986    0.0000 C   0  0  0  0  0  0  0  0  0  0  0  0
   -7.5945    0.1549    0.0000 C   0  0  0  0  0  0  0  0  0  0  0  0
   -8.3936   -1.1146    0.0000 C   0  0  0  0  0  0  0  0  0  0  0  0
   -7.6893   -2.4456    0.0000 C   0  0  0  0  0  0  0  0  0  0  0  0
   11.1066   -0.3814    0.0000 C   0  0  0  0  0  0  0  0  0  0  0  0
  1  2  1  0
  2  3  1  0
  3  4  2  0
  4  5  1  0
  5  6  1  0
  6  7  1  1
  7  8  1  0
  8  9  1  0
  9 10  1  0
 10 11  1  0
 11 12  1  0
 12 13  1  0
 12 14  2  0
  1 14  1  0
 11 15  2  0
 10 16  2  0
  7 17  2  0
  6 18  1  0
 18 19  1  0
 19 20  1  0
 20 21  1  0
  5 21  1  0
 21 22  1  0
 20 22  1  0
 20 23  1  1
 19 24  1  0
 18 25  1  0
 25 26  1  0
 26 27  1  0
  6 27  1  0
 27 28  2  0
 25 29  1  0
 29 30  1  0
 29 31  1  0
 31 32  2  0
 32 33  1  0
 33 34  1  0
 34 35  2  0
 31 35  1  0
 35 36  1  0
 36 37  2  0
 37 38  1  0
 38 39  2  0
 34 39  1  0
  1 40  1  0
M  END
>  <cdk:Title>  (162) 
Chaetoglobosin N

>  <1A2>  (162) 
N

>  <2A6>  (162) 
N

>  <2B6>  (162) 
N

>  <2C8>  (162) 
N

>  <2C9>  (162) 
N

>  <2C19>  (162) 
N

>  <2D6>  (162) 
N

>  <2E1>  (162) 
N

>  <3A4>  (162) 
N

>  <Citation>  (162) 
Nucleic Acids Res. 2018. Jan 4;46(D1):D608-17. PMID:29140435
Nucleic Acids Res. 2018 Jan 4;46(D1):D1074-D1082. PMID:29126136
Nucleic Acids Res., 45:D380-388 (2017).  PMID:27924025
Nucleic Acids Res. 2016 Jan 4;44(D1):D1202-13. PMID:26400175

>  <ROMol>  (162) 
<rdkit.Chem.rdchem.Mol object at 0x7c2906125f50>

>  <Drug_like>  (162) 
True

$$$$
Heptadecanoyl carnitine
     RDKit          2D

 29 28  0  0  0  0  0  0  0  0999 V2000
   -0.4422   -8.0918    0.0000 O   0  0  0  0  0  0  0  0  0  0  0  0
   -1.7413   -8.8418    0.0000 C   0  0  0  0  0  0  0  0  0  0  0  0
   -2.2543   -7.4322    0.0000 C   0  0  0  0  0  0  0  0  0  0  0  0
   -3.7315   -7.1717    0.0000 C   0  0  0  0  0  0  0  0  0  0  0  0
   -4.6957   -8.3208    0.0000 O   0  0  0  0  0  0  0  0  0  0  0  0
   -4.2445   -5.7622    0.0000 O   0  0  0  0  0  0  0  0  0  0  0  0
   -1.7413  -10.8218    0.0000 C   0  0  0  0  0  0  0  0  0  0  0  0
   -4.2874  -12.2918    0.0000 N   0  0  0  0  0  0  0  0  0  0  0  0
   -4.2874  -13.7918    0.0000 C   0  0  0  0  0  0  0  0  0  0  0  0
   -4.8004  -10.8822    0.0000 C   0  0  0  0  0  0  0  0  0  0  0  0
   -7.1827  -12.8023    0.0000 C   0  0  0  0  0  0  0  0  0  0  0  0
    0.8568   -8.8418    0.0000 C   0  0  0  0  0  0  0  0  0  0  0  0
    2.1558   -8.0918    0.0000 C   0  0  0  0  0  0  0  0  0  0  0  0
    4.2863   -9.3218    0.0000 C   0  0  0  0  0  0  0  0  0  0  0  0
    6.0010   -8.3318    0.0000 C   0  0  0  0  0  0  0  0  0  0  0  0
    7.7157   -9.3218    0.0000 C   0  0  0  0  0  0  0  0  0  0  0  0
    9.4305   -8.3318    0.0000 C   0  0  0  0  0  0  0  0  0  0  0  0
   11.1452   -9.3218    0.0000 C   0  0  0  0  0  0  0  0  0  0  0  0
   12.8599   -8.3318    0.0000 C   0  0  0  0  0  0  0  0  0  0  0  0
   14.5746   -9.3218    0.0000 C   0  0  0  0  0  0  0  0  0  0  0  0
   16.2894   -8.3318    0.0000 C   0  0  0  0  0  0  0  0  0  0  0  0
   18.0041   -9.3218    0.0000 C   0  0  0  0  0  0  0  0  0  0  0  0
   19.7188   -8.3318    0.0000 C   0  0  0  0  0  0  0  0  0  0  0  0
   21.4336   -9.3218    0.0000 C   0  0  0  0  0  0  0  0  0  0  0  0
   23.1483   -8.3318    0.0000 C   0  0  0  0  0  0  0  0  0  0  0  0
   24.8630   -9.3218    0.0000 C   0  0  0  0  0  0  0  0  0  0  0  0
   26.1621   -8.5718    0.0000 C   0  0  0  0  0  0  0  0  0  0  0  0
   27.4611   -9.3218    0.0000 C   0  0  0  0  0  0  0  0  0  0  0  0
    0.8568  -10.3418    0.0000 O   0  0  0  0  0  0  0  0  0  0  0  0
  1  2  1  0
  2  3  1  0
  3  4  1  0
  4  5  1  0
  4  6  2  0
  2  7  1  0
  7  8  1  0
  8  9  1  0
  8 10  1  0
  8 11  1  0
  1 12  1  0
 12 13  1  0
 13 14  1  0
 14 15  1  0
 15 16  1  0
 16 17  1  0
 17 18  1  0
 18 19  1  0
 19 20  1  0
 20 21  1  0
 21 22  1  0
 22 23  1  0
 23 24  1  0
 24 25  1  0
 25 26  1  0
 26 27  1  0
 27 28  1  0
 12 29  2  0
M  CHG  2   5  -1   8   1
M  END
>  <cdk:Title>  (163) 
Heptadecanoyl carnitine

>  <1A2>  (163) 
N

>  <2A6>  (163) 
N

>  <2B6>  (163) 
N

>  <2C8>  (163) 
N

>  <2C9>  (163) 
N

>  <2C19>  (163) 
N

>  <2D6>  (163) 
N

>  <2E1>  (163) 
N

>  <3A4>  (163) 
N

>  <Citation>  (163) 
Nucleic Acids Res. 2018. Jan 4;46(D1):D608-17. PMID:29140435
Nucleic Acids Res. 2018 Jan 4;46(D1):D1074-D1082. PMID:29126136
Nucleic Acids Res., 45:D380-388 (2017).  PMID:27924025
Nucleic Acids Res. 2016 Jan 4;44(D1):D1202-13. PMID:26400175

>  <ROMol>  (163) 
<rdkit.Chem.rdchem.Mol object at 0x7c2906125fc0>

>  <Drug_like>  (163) 
True

$$$$
AC1l19Re
     RDKit          2D

 23 24  0  0  0  0  0  0  0  0999 V2000
   -1.7686    0.6900    0.0000 C   0  0  0  0  0  0  0  0  0  0  0  0
   -0.4686   -0.0600    0.0000 N   0  0  0  0  0  0  0  0  0  0  0  0
    0.8314    0.6900    0.0000 C   0  0  0  0  0  0  0  0  0  0  0  0
    0.8314    2.1900    0.0000 C   0  0  0  0  0  0  0  0  0  0  0  0
   -0.4686    2.9400    0.0000 N   0  0  0  0  0  0  0  0  0  0  0  0
   -1.7686    2.1900    0.0000 C   0  0  0  0  0  0  0  0  0  0  0  0
   -3.0686    2.9400    0.0000 C   0  0  0  0  0  0  0  0  0  0  0  0
   -4.3686    2.1900    0.0000 N   0  0  0  0  0  0  0  0  0  0  0  0
   -4.3686    0.6900    0.0000 C   0  0  0  0  0  0  0  0  0  0  0  0
   -3.0686   -0.0600    0.0000 N   0  0  0  0  0  0  0  0  0  0  0  0
   -5.6675   -0.0602    0.0000 O   0  0  0  0  0  0  0  0  0  0  0  0
   -3.0686    4.4400    0.0000 O   0  0  0  0  0  0  0  0  0  0  0  0
    2.1303    2.9402    0.0000 C   0  0  0  0  0  0  0  0  0  0  0  0
    2.1303   -0.0602    0.0000 C   0  0  0  0  0  0  0  0  0  0  0  0
   -0.4686   -1.5600    0.0000 C   0  0  0  0  0  0  0  0  0  0  0  0
   -2.1833   -2.5500    0.0000 C   0  0  0  0  0  0  0  0  0  0  0  0
   -2.1833   -4.5300    0.0000 C   0  0  0  0  0  0  0  0  0  0  0  0
   -4.3138   -5.7600    0.0000 C   0  0  0  0  0  0  0  0  0  0  0  0
   -4.3138   -8.2200    0.0000 C   0  0  0  0  0  0  0  0  0  0  0  0
   -5.6128   -8.9700    0.0000 O   0  0  0  0  0  0  0  0  0  0  0  0
   -4.8268   -4.3505    0.0000 O   0  0  0  0  0  0  0  0  0  0  0  0
   -1.6703   -5.9395    0.0000 O   0  0  0  0  0  0  0  0  0  0  0  0
   -2.6964   -1.1405    0.0000 O   0  0  0  0  0  0  0  0  0  0  0  0
  1  2  1  0
  2  3  1  0
  3  4  2  0
  4  5  1  0
  5  6  2  0
  1  6  1  0
  6  7  1  0
  7  8  1  0
  8  9  1  0
  9 10  1  0
  1 10  2  0
  9 11  2  0
  7 12  2  0
  4 13  1  0
  3 14  1  0
  2 15  1  0
 15 16  1  0
 16 17  1  0
 17 18  1  0
 18 19  1  0
 19 20  1  0
 18 21  1  0
 17 22  1  0
 16 23  1  0
M  END
>  <cdk:Title>  (164) 
AC1l19Re

>  <1A2>  (164) 
N

>  <2A6>  (164) 
N

>  <2B6>  (164) 
N

>  <2C8>  (164) 
N

>  <2C9>  (164) 
N

>  <2C19>  (164) 
N

>  <2D6>  (164) 
N

>  <2E1>  (164) 
N

>  <3A4>  (164) 
N

>  <Citation>  (164) 
Nucleic Acids Res. 2018. Jan 4;46(D1):D608-17. PMID:29140435
Nucleic Acids Res. 2018 Jan 4;46(D1):D1074-D1082. PMID:29126136
Nucleic Acids Res., 45:D380-388 (2017).  PMID:27924025
Nucleic Acids Res. 2016 Jan 4;44(D1):D1202-13. PMID:26400175

>  <ROMol>  (164) 
<rdkit.Chem.rdchem.Mol object at 0x7c2906126030>

>  <Drug_like>  (164) 
True

$$$$
Thromboxane b3
     RDKit          2D

 26 26  0  0  0  0  0  0  0  0999 V2000
    4.2188   -9.7054    0.0000 O   0  0  0  0  0  0  0  0  0  0  0  0
    2.9193   -8.9546    0.0000 C   0  0  0  0  0  0  0  0  0  0  0  0
    1.6202   -9.7046    0.0000 C   0  0  0  0  0  0  0  0  0  0  0  0
    1.6207  -11.2054    0.0000 C   0  0  0  0  0  0  0  0  0  0  0  0
    0.1435  -10.9451    0.0000 O   0  0  0  0  0  0  0  0  0  0  0  0
    2.9202  -11.9562    0.0000 C   0  0  0  0  0  0  0  0  0  0  0  0
    4.2193  -11.2062    0.0000 C   0  0  0  0  0  0  0  0  0  0  0  0
    4.7324  -12.6157    0.0000 O   0  0  0  0  0  0  0  0  0  0  0  0
    0.6144   -6.9420    0.0000 C   0  0  0  0  0  0  0  0  0  0  0  0
   -0.8629   -6.6817    0.0000 C   0  0  0  0  0  0  0  0  0  0  0  0
   -1.3760   -5.2722    0.0000 C   0  0  0  0  0  0  0  0  0  0  0  0
   -2.8533   -5.0119    0.0000 C   0  0  0  0  0  0  0  0  0  0  0  0
   -3.5307   -3.1514    0.0000 C   0  0  0  0  0  0  0  0  0  0  0  0
   -5.0079   -2.8910    0.0000 C   0  0  0  0  0  0  0  0  0  0  0  0
   -5.5211   -1.4816    0.0000 C   0  0  0  0  0  0  0  0  0  0  0  0
   -6.9983   -1.2212    0.0000 O   0  0  0  0  0  0  0  0  0  0  0  0
   -4.5570   -0.3324    0.0000 O   0  0  0  0  0  0  0  0  0  0  0  0
    3.8837   -7.8057    0.0000 C   0  0  0  0  0  0  0  0  0  0  0  0
    5.3608   -8.0665    0.0000 C   0  0  0  0  0  0  0  0  0  0  0  0
    6.3253   -6.9176    0.0000 C   0  0  0  0  0  0  0  0  0  0  0  0
    6.8386   -5.5082    0.0000 O   0  0  0  0  0  0  0  0  0  0  0  0
    7.8024   -7.1784    0.0000 C   0  0  0  0  0  0  0  0  0  0  0  0
    8.7668   -6.0296    0.0000 C   0  0  0  0  0  0  0  0  0  0  0  0
   10.2440   -6.2904    0.0000 C   0  0  0  0  0  0  0  0  0  0  0  0
   11.2084   -5.1415    0.0000 C   0  0  0  0  0  0  0  0  0  0  0  0
   12.6856   -5.4023    0.0000 C   0  0  0  0  0  0  0  0  0  0  0  0
  1  2  1  0
  2  3  1  0
  3  4  1  0
  4  5  1  0
  4  6  1  0
  6  7  1  0
  1  7  1  0
  7  8  1  0
  3  9  1  0
  9 10  1  0
 10 11  2  0
 11 12  1  0
 12 13  1  0
 13 14  1  0
 14 15  1  0
 15 16  1  0
 15 17  2  0
  2 18  1  0
 18 19  2  0
 19 20  1  0
 20 21  1  0
 20 22  1  0
 22 23  1  0
 23 24  2  0
 24 25  1  0
 25 26  1  0
M  END
>  <cdk:Title>  (165) 
Thromboxane b3

>  <1A2>  (165) 
N

>  <2A6>  (165) 
N

>  <2B6>  (165) 
N

>  <2C8>  (165) 
N

>  <2C9>  (165) 
N

>  <2C19>  (165) 
N

>  <2D6>  (165) 
N

>  <2E1>  (165) 
N

>  <3A4>  (165) 
N

>  <Citation>  (165) 
Nucleic Acids Res. 2018. Jan 4;46(D1):D608-17. PMID:29140435
Nucleic Acids Res. 2018 Jan 4;46(D1):D1074-D1082. PMID:29126136
Nucleic Acids Res., 45:D380-388 (2017).  PMID:27924025
Nucleic Acids Res. 2016 Jan 4;44(D1):D1202-13. PMID:26400175

>  <ROMol>  (165) 
<rdkit.Chem.rdchem.Mol object at 0x7c29061260a0>

>  <Drug_like>  (165) 
True

$$$$
11_12_15-Trihydroxy-(5Z_8Z_13E)-icosatrienoate
     RDKit          2D

 25 24  0  0  0  0  0  0  0  0999 V2000
   18.3382   -6.8210    0.0000 O   0  0  0  0  0  0  0  0  0  0  0  0
   19.3023   -5.6720    0.0000 C   0  0  0  0  0  0  0  0  0  0  0  0
   20.6014   -4.9220    0.0000 C   0  0  0  0  0  0  0  0  0  0  0  0
   22.7318   -6.1520    0.0000 C   0  0  0  0  0  0  0  0  0  0  0  0
   24.4465   -5.1620    0.0000 C   0  0  0  0  0  0  0  0  0  0  0  0
   25.7456   -5.9120    0.0000 C   0  0  0  0  0  0  0  0  0  0  0  0
   27.0446   -5.1620    0.0000 C   0  0  0  0  0  0  0  0  0  0  0  0
   18.0033   -4.9220    0.0000 C   0  0  0  0  0  0  0  0  0  0  0  0
   16.7043   -5.6720    0.0000 C   0  0  0  0  0  0  0  0  0  0  0  0
   15.4052   -4.9220    0.0000 C   0  0  0  0  0  0  0  0  0  0  0  0
   16.3694   -3.7729    0.0000 O   0  0  0  0  0  0  0  0  0  0  0  0
   14.1062   -5.6720    0.0000 C   0  0  0  0  0  0  0  0  0  0  0  0
   12.1563   -6.0158    0.0000 O   0  0  0  0  0  0  0  0  0  0  0  0
   14.1062   -8.6120    0.0000 C   0  0  0  0  0  0  0  0  0  0  0  0
   11.5601  -10.0820    0.0000 C   0  0  0  0  0  0  0  0  0  0  0  0
    9.4297   -8.8520    0.0000 C   0  0  0  0  0  0  0  0  0  0  0  0
    9.4297   -7.3520    0.0000 C   0  0  0  0  0  0  0  0  0  0  0  0
    8.1306   -6.6020    0.0000 C   0  0  0  0  0  0  0  0  0  0  0  0
    6.8316   -7.3520    0.0000 C   0  0  0  0  0  0  0  0  0  0  0  0
    6.8316   -8.8520    0.0000 C   0  0  0  0  0  0  0  0  0  0  0  0
    5.5325   -9.6020    0.0000 C   0  0  0  0  0  0  0  0  0  0  0  0
    4.2335   -8.8520    0.0000 C   0  0  0  0  0  0  0  0  0  0  0  0
    2.9345   -9.6020    0.0000 C   0  0  0  0  0  0  0  0  0  0  0  0
    1.6354   -8.8520    0.0000 O   0  0  0  0  0  0  0  0  0  0  0  0
    2.9345  -11.1020    0.0000 O   0  0  0  0  0  0  0  0  0  0  0  0
  1  2  1  0
  2  3  1  0
  3  4  1  0
  4  5  1  0
  5  6  1  0
  6  7  1  0
  2  8  1  0
  8  9  2  0
  9 10  1  0
 10 11  1  0
 10 12  1  0
 12 13  1  0
 12 14  1  0
 14 15  1  0
 15 16  2  0
 16 17  1  0
 17 18  1  0
 18 19  2  0
 19 20  1  0
 20 21  1  0
 21 22  1  0
 22 23  1  0
 23 24  1  0
 23 25  2  0
M  END
>  <cdk:Title>  (166) 
11_12_15-Trihydroxy-(5Z_8Z_13E)-icosatrienoate

>  <1A2>  (166) 
N

>  <2A6>  (166) 
N

>  <2B6>  (166) 
N

>  <2C8>  (166) 
N

>  <2C9>  (166) 
N

>  <2C19>  (166) 
N

>  <2D6>  (166) 
N

>  <2E1>  (166) 
N

>  <3A4>  (166) 
N

>  <Citation>  (166) 
Nucleic Acids Res. 2018. Jan 4;46(D1):D608-17. PMID:29140435
Nucleic Acids Res. 2018 Jan 4;46(D1):D1074-D1082. PMID:29126136
Nucleic Acids Res., 45:D380-388 (2017).  PMID:27924025
Nucleic Acids Res. 2016 Jan 4;44(D1):D1202-13. PMID:26400175

>  <ROMol>  (166) 
<rdkit.Chem.rdchem.Mol object at 0x7c2906126110>

>  <Drug_like>  (166) 
True

$$$$
6-Hydroxy-8-docosanone
     RDKit          2D

 24 23  0  0  0  0  0  0  0  0999 V2000
   31.9044   -0.4800    0.0000 C   0  0  0  0  0  0  0  0  0  0  0  0
   30.6053   -1.2300    0.0000 C   0  0  0  0  0  0  0  0  0  0  0  0
   29.3063   -0.4800    0.0000 C   0  0  0  0  0  0  0  0  0  0  0  0
   26.7602   -1.9500    0.0000 C   0  0  0  0  0  0  0  0  0  0  0  0
   25.0455   -0.9600    0.0000 C   0  0  0  0  0  0  0  0  0  0  0  0
   23.3307   -1.9500    0.0000 C   0  0  0  0  0  0  0  0  0  0  0  0
   22.0317   -1.2000    0.0000 C   0  0  0  0  0  0  0  0  0  0  0  0
   19.9013   -2.4300    0.0000 C   0  0  0  0  0  0  0  0  0  0  0  0
   18.1865   -1.4400    0.0000 C   0  0  0  0  0  0  0  0  0  0  0  0
   16.4718   -2.4300    0.0000 C   0  0  0  0  0  0  0  0  0  0  0  0
   14.7571   -1.4400    0.0000 C   0  0  0  0  0  0  0  0  0  0  0  0
   13.0423   -2.4300    0.0000 C   0  0  0  0  0  0  0  0  0  0  0  0
   11.3276   -1.4400    0.0000 C   0  0  0  0  0  0  0  0  0  0  0  0
   10.0286   -2.1900    0.0000 C   0  0  0  0  0  0  0  0  0  0  0  0
    8.3138   -1.2000    0.0000 C   0  0  0  0  0  0  0  0  0  0  0  0
    7.0148   -1.9500    0.0000 C   0  0  0  0  0  0  0  0  0  0  0  0
    5.7158   -1.2000    0.0000 C   0  0  0  0  0  0  0  0  0  0  0  0
    3.1697   -2.6700    0.0000 C   0  0  0  0  0  0  0  0  0  0  0  0
    1.4549   -1.6800    0.0000 C   0  0  0  0  0  0  0  0  0  0  0  0
   -0.2598   -2.6700    0.0000 C   0  0  0  0  0  0  0  0  0  0  0  0
   -1.5588   -1.9200    0.0000 C   0  0  0  0  0  0  0  0  0  0  0  0
   -2.8579   -2.6700    0.0000 C   0  0  0  0  0  0  0  0  0  0  0  0
    6.6799   -0.0509    0.0000 O   0  0  0  0  0  0  0  0  0  0  0  0
    8.3138    0.3000    0.0000 O   0  0  0  0  0  0  0  0  0  0  0  0
  1  2  1  0
  2  3  1  0
  3  4  1  0
  4  5  1  0
  5  6  1  0
  6  7  1  0
  7  8  1  0
  8  9  1  0
  9 10  1  0
 10 11  1  0
 11 12  1  0
 12 13  1  0
 13 14  1  0
 14 15  1  0
 15 16  1  0
 16 17  1  0
 17 18  1  0
 18 19  1  0
 19 20  1  0
 20 21  1  0
 21 22  1  0
 17 23  1  0
 15 24  2  0
M  END
>  <cdk:Title>  (167) 
6-Hydroxy-8-docosanone

>  <1A2>  (167) 
N

>  <2A6>  (167) 
N

>  <2B6>  (167) 
N

>  <2C8>  (167) 
N

>  <2C9>  (167) 
N

>  <2C19>  (167) 
N

>  <2D6>  (167) 
N

>  <2E1>  (167) 
N

>  <3A4>  (167) 
N

>  <Citation>  (167) 
Nucleic Acids Res. 2018. Jan 4;46(D1):D608-17. PMID:29140435
Nucleic Acids Res. 2018 Jan 4;46(D1):D1074-D1082. PMID:29126136
Nucleic Acids Res., 45:D380-388 (2017).  PMID:27924025
Nucleic Acids Res. 2016 Jan 4;44(D1):D1202-13. PMID:26400175

>  <ROMol>  (167) 
<rdkit.Chem.rdchem.Mol object at 0x7c29061261f0>

>  <Drug_like>  (167) 
True

$$$$
Rosmaridiphenol
     RDKit          2D

 23 25  0  0  0  0  0  0  0  0999 V2000
   -5.9050    0.6609    0.0000 C   0  0  0  0  0  0  0  0  0  0  0  0
   -4.7075    1.5642    0.0000 C   0  0  0  0  0  0  0  0  0  0  0  0
   -5.8050    2.5867    0.0000 C   0  0  0  0  0  0  0  0  0  0  0  0
   -3.2732    2.0034    0.0000 C   0  0  0  0  0  0  0  0  0  0  0  0
   -2.1732    0.9834    0.0000 C   0  0  0  0  0  0  0  0  0  0  0  0
   -0.7432    1.4234    0.0000 C   0  0  0  0  0  0  0  0  0  0  0  0
    0.1968    0.2534    0.0000 C   0  0  0  0  0  0  0  0  0  0  0  0
    1.6968    0.2534    0.0000 C   0  0  0  0  0  0  0  0  0  0  0  0
    2.6368    1.4234    0.0000 C   0  0  0  0  0  0  0  0  0  0  0  0
    2.2968    2.8834    0.0000 C   0  0  0  0  0  0  0  0  0  0  0  0
    3.3968    3.9034    0.0000 C   0  0  0  0  0  0  0  0  0  0  0  0
    4.8268    3.4634    0.0000 C   0  0  0  0  0  0  0  0  0  0  0  0
    5.1668    2.0034    0.0000 C   0  0  0  0  0  0  0  0  0  0  0  0
    4.0668    0.9834    0.0000 C   0  0  0  0  0  0  0  0  0  0  0  0
    2.7265   -1.6333    0.0000 C   0  0  0  0  0  0  0  0  0  0  0  0
    6.4104   -0.7917    0.0000 C   0  0  0  0  0  0  0  0  0  0  0  0
    0.9468    3.5334    0.0000 C   0  0  0  0  0  0  0  0  0  0  0  0
   -0.4032    2.8834    0.0000 C   0  0  0  0  0  0  0  0  0  0  0  0
   -1.5032    3.9034    0.0000 C   0  0  0  0  0  0  0  0  0  0  0  0
   -2.9332    3.4634    0.0000 C   0  0  0  0  0  0  0  0  0  0  0  0
   -4.0302    4.4865    0.0000 O   0  0  0  0  0  0  0  0  0  0  0  0
   -1.1692    5.3657    0.0000 O   0  0  0  0  0  0  0  0  0  0  0  0
    0.9468    5.0334    0.0000 O   0  0  0  0  0  0  0  0  0  0  0  0
  1  2  1  0
  2  3  1  0
  2  4  1  0
  4  5  2  0
  5  6  1  0
  6  7  1  0
  7  8  1  0
  8  9  1  0
  9 10  1  0
 10 11  1  0
 11 12  1  0
 12 13  1  0
 13 14  1  0
  9 14  1  0
 14 15  1  0
 14 16  1  0
 10 17  1  0
 17 18  1  0
  6 18  2  0
 18 19  1  0
 19 20  2  0
  4 20  1  0
 20 21  1  0
 19 22  1  0
 17 23  2  0
M  END
>  <cdk:Title>  (168) 
Rosmaridiphenol

>  <1A2>  (168) 
N

>  <2A6>  (168) 
N

>  <2B6>  (168) 
N

>  <2C8>  (168) 
N

>  <2C9>  (168) 
N

>  <2C19>  (168) 
N

>  <2D6>  (168) 
N

>  <2E1>  (168) 
N

>  <3A4>  (168) 
N

>  <Citation>  (168) 
Nucleic Acids Res. 2018. Jan 4;46(D1):D608-17. PMID:29140435
Nucleic Acids Res. 2018 Jan 4;46(D1):D1074-D1082. PMID:29126136
Nucleic Acids Res., 45:D380-388 (2017).  PMID:27924025
Nucleic Acids Res. 2016 Jan 4;44(D1):D1202-13. PMID:26400175

>  <ROMol>  (168) 
<rdkit.Chem.rdchem.Mol object at 0x7c29061262d0>

>  <Drug_like>  (168) 
True

$$$$
90986-51-9
     RDKit          2D

 46 53  0  0  0  0  0  0  0  0999 V2000
  -13.2958    4.6862    0.0000 C   0  0  0  0  0  0  0  0  0  0  0  0
  -11.8186    4.4257    0.0000 C   0  0  0  0  0  0  0  0  0  0  0  0
  -11.3056    3.0162    0.0000 O   0  0  0  0  0  0  0  0  0  0  0  0
  -10.8544    5.5748    0.0000 O   0  0  0  0  0  0  0  0  0  0  0  0
   -9.3772    5.3143    0.0000 C   0  0  0  0  0  0  0  0  0  0  0  0
   -8.0782    4.5643    0.0000 C   0  0  0  0  0  0  0  0  0  0  0  0
   -6.7792    5.3143    0.0000 C   0  0  0  0  0  0  0  0  0  0  0  0
   -6.7792    6.8143    0.0000 C   0  0  0  0  0  0  0  0  0  0  0  0
   -5.4801    7.5643    0.0000 C   0  0  0  0  0  0  0  0  0  0  0  0
   -4.1811    6.8143    0.0000 C   0  0  0  0  0  0  0  0  0  0  0  0
   -4.1811    5.3143    0.0000 C   0  0  0  0  0  0  0  0  0  0  0  0
   -2.2312    5.6581    0.0000 C   0  0  0  0  0  0  0  0  0  0  0  0
   -2.8820    4.5643    0.0000 C   0  0  0  0  0  0  0  0  0  0  0  0
   -2.5747    7.4882    0.0000 C   0  0  0  0  0  0  0  0  0  0  0  0
   -2.8820    3.0643    0.0000 C   0  0  0  0  0  0  0  0  0  0  0  0
   -4.1811    2.3143    0.0000 C   0  0  0  0  0  0  0  0  0  0  0  0
   -5.4801    3.0643    0.0000 C   0  0  0  0  0  0  0  0  0  0  0  0
   -5.4801    4.5643    0.0000 C   0  0  0  0  0  0  0  0  0  0  0  0
   -6.7792    3.8143    0.0000 O   0  0  0  0  0  0  0  0  0  0  0  0
   -1.4555    2.6008    0.0000 C   0  0  0  0  0  0  0  0  0  0  0  0
   -0.5738    3.8143    0.0000 C   0  0  0  0  0  0  0  0  0  0  0  0
    0.8528    4.2779    0.0000 C   0  0  0  0  0  0  0  0  0  0  0  0
    2.1518    3.5279    0.0000 C   0  0  0  0  0  0  0  0  0  0  0  0
    3.4509    4.2779    0.0000 C   0  0  0  0  0  0  0  0  0  0  0  0
    4.8775    3.8143    0.0000 C   0  0  0  0  0  0  0  0  0  0  0  0
    5.7591    5.0279    0.0000 C   0  0  0  0  0  0  0  0  0  0  0  0
    4.8775    6.2414    0.0000 C   0  0  0  0  0  0  0  0  0  0  0  0
    5.4876    7.6117    0.0000 C   0  0  0  0  0  0  0  0  0  0  0  0
    6.9794    7.7685    0.0000 C   0  0  0  0  0  0  0  0  0  0  0  0
    8.3275    8.4260    0.0000 C   0  0  0  0  0  0  0  0  0  0  0  0
    6.3013   10.1332    0.0000 C   0  0  0  0  0  0  0  0  0  0  0  0
    7.8610    6.5550    0.0000 O   0  0  0  0  0  0  0  0  0  0  0  0
    7.2509    5.1846    0.0000 C   0  0  0  0  0  0  0  0  0  0  0  0
    7.0458    2.2518    0.0000 C   0  0  0  0  0  0  0  0  0  0  0  0
    8.7064    4.8218    0.0000 C   0  0  0  0  0  0  0  0  0  0  0  0
    3.4509    5.7779    0.0000 C   0  0  0  0  0  0  0  0  0  0  0  0
    2.1518    6.5279    0.0000 C   0  0  0  0  0  0  0  0  0  0  0  0
    0.8528    5.7779    0.0000 C   0  0  0  0  0  0  0  0  0  0  0  0
   -0.5738    6.2414    0.0000 N   0  0  0  0  0  0  0  0  0  0  0  0
   -1.4555    5.0279    0.0000 C   0  0  0  0  0  0  0  0  0  0  0  0
   -8.0782    7.5643    0.0000 O   0  0  0  0  0  0  0  0  0  0  0  0
   -9.3772    6.8143    0.0000 C   0  0  0  0  0  0  0  0  0  0  0  0
  -10.2186    9.1260    0.0000 C   0  0  0  0  0  0  0  0  0  0  0  0
   -9.2544   10.2750    0.0000 C   0  0  0  0  0  0  0  0  0  0  0  0
  -11.5176    8.3760    0.0000 C   0  0  0  0  0  0  0  0  0  0  0  0
  -11.1828   10.2750    0.0000 O   0  0  0  0  0  0  0  0  0  0  0  0
  1  2  1  0
  2  3  2  0
  2  4  1  0
  4  5  1  0
  5  6  1  0
  6  7  2  0
  7  8  1  0
  8  9  1  0
  9 10  1  0
 10 11  1  0
 11 12  1  1
 11 13  1  0
 13 14  1  6
 13 15  1  0
 15 16  1  0
 16 17  1  0
 17 18  1  0
  7 18  1  0
 11 18  1  0
 18 19  1  6
 15 20  1  0
 20 21  1  0
 21 22  1  0
 22 23  2  0
 23 24  1  0
 24 25  1  0
 25 26  1  0
 26 27  1  0
 27 28  2  0
 28 29  1  0
 29 30  1  0
 29 31  1  0
 29 32  1  0
 32 33  1  0
 26 33  1  0
 33 34  1  0
 33 35  1  0
 27 36  1  0
 24 36  2  0
 36 37  1  0
 37 38  2  0
 22 38  1  0
 38 39  1  0
 39 40  1  0
 21 40  2  0
 13 40  1  0
  8 41  1  0
 41 42  1  0
  5 42  1  0
 42 43  1  0
 43 44  1  0
 43 45  1  0
 43 46  1  0
M  END
>  <cdk:Title>  (169) 
90986-51-9

>  <1A2>  (169) 
N

>  <2A6>  (169) 
N

>  <2B6>  (169) 
N

>  <2C8>  (169) 
N

>  <2C9>  (169) 
N

>  <2C19>  (169) 
N

>  <2D6>  (169) 
N

>  <2E1>  (169) 
N

>  <3A4>  (169) 
N

>  <Citation>  (169) 
Nucleic Acids Res. 2018. Jan 4;46(D1):D608-17. PMID:29140435
Nucleic Acids Res. 2018 Jan 4;46(D1):D1074-D1082. PMID:29126136
Nucleic Acids Res., 45:D380-388 (2017).  PMID:27924025
Nucleic Acids Res. 2016 Jan 4;44(D1):D1202-13. PMID:26400175

>  <ROMol>  (169) 
<rdkit.Chem.rdchem.Mol object at 0x7c2906126340>

>  <Drug_like>  (169) 
True

$$$$
12alpha-Hydroxy-3-oxochola-4_6-dien-24-Oic Acid
     RDKit          2D

 28 31  0  0  0  0  0  0  0  0999 V2000
    7.1120   -2.5567    0.0000 C   0  0  0  0  0  0  0  0  0  0  0  0
    6.6006   -1.1466    0.0000 C   0  0  0  0  0  0  0  0  0  0  0  0
    6.6029    0.8334    0.0000 C   0  0  0  0  0  0  0  0  0  0  0  0
    7.9028    1.5819    0.0000 C   0  0  0  0  0  0  0  0  0  0  0  0
    7.9045    3.0819    0.0000 C   0  0  0  0  0  0  0  0  0  0  0  0
    9.2044    3.8304    0.0000 O   0  0  0  0  0  0  0  0  0  0  0  0
    6.6063    3.8334    0.0000 O   0  0  0  0  0  0  0  0  0  0  0  0
    4.0528   -2.6136    0.0000 C   0  0  0  0  0  0  0  0  0  0  0  0
    4.9328   -3.8336    0.0000 C   0  0  0  0  0  0  0  0  0  0  0  0
    4.0528   -5.0436    0.0000 C   0  0  0  0  0  0  0  0  0  0  0  0
    2.6228   -4.5836    0.0000 C   0  0  0  0  0  0  0  0  0  0  0  0
    1.3228   -5.3336    0.0000 C   0  0  0  0  0  0  0  0  0  0  0  0
    1.3228   -6.8336    0.0000 C   0  0  0  0  0  0  0  0  0  0  0  0
    0.0228   -7.5836    0.0000 C   0  0  0  0  0  0  0  0  0  0  0  0
   -1.2772   -6.8336    0.0000 C   0  0  0  0  0  0  0  0  0  0  0  0
   -2.5672   -7.5836    0.0000 C   0  0  0  0  0  0  0  0  0  0  0  0
   -3.8672   -6.8336    0.0000 C   0  0  0  0  0  0  0  0  0  0  0  0
   -3.8672   -5.3336    0.0000 C   0  0  0  0  0  0  0  0  0  0  0  0
   -2.5672   -4.5836    0.0000 C   0  0  0  0  0  0  0  0  0  0  0  0
   -1.2772   -5.3336    0.0000 C   0  0  0  0  0  0  0  0  0  0  0  0
    0.0228   -4.5836    0.0000 C   0  0  0  0  0  0  0  0  0  0  0  0
    0.0228   -3.0836    0.0000 C   0  0  0  0  0  0  0  0  0  0  0  0
    1.3228   -2.3336    0.0000 C   0  0  0  0  0  0  0  0  0  0  0  0
    2.2868   -1.1845    0.0000 O   0  0  0  0  0  0  0  0  0  0  0  0
    2.6228   -3.0836    0.0000 C   0  0  0  0  0  0  0  0  0  0  0  0
    3.4279   -0.2560    0.0000 C   0  0  0  0  0  0  0  0  0  0  0  0
   -0.9302   -3.3843    0.0000 C   0  0  0  0  0  0  0  0  0  0  0  0
   -5.1662   -7.5839    0.0000 O   0  0  0  0  0  0  0  0  0  0  0  0
  1  2  1  0
  2  3  1  0
  3  4  1  0
  4  5  1  0
  5  6  1  0
  5  7  2  0
  2  8  1  0
  8  9  1  0
  9 10  1  0
 10 11  1  0
 11 12  1  0
 12 13  1  0
 13 14  2  0
 14 15  1  0
 15 16  2  0
 16 17  1  0
 17 18  1  0
 18 19  1  0
 19 20  1  0
 15 20  1  0
 20 21  1  0
 12 21  1  0
 21 22  1  0
 22 23  1  0
 23 24  1  0
 23 25  1  0
  8 25  1  0
 11 25  1  0
 25 26  1  1
 20 27  1  1
 17 28  2  0
M  END
>  <cdk:Title>  (170) 
12alpha-Hydroxy-3-oxochola-4_6-dien-24-Oic Acid

>  <1A2>  (170) 
N

>  <2A6>  (170) 
N

>  <2B6>  (170) 
N

>  <2C8>  (170) 
N

>  <2C9>  (170) 
N

>  <2C19>  (170) 
N

>  <2D6>  (170) 
N

>  <2E1>  (170) 
N

>  <3A4>  (170) 
N

>  <Citation>  (170) 
Nucleic Acids Res. 2018. Jan 4;46(D1):D608-17. PMID:29140435
Nucleic Acids Res. 2018 Jan 4;46(D1):D1074-D1082. PMID:29126136
Nucleic Acids Res., 45:D380-388 (2017).  PMID:27924025
Nucleic Acids Res. 2016 Jan 4;44(D1):D1202-13. PMID:26400175

>  <ROMol>  (170) 
<rdkit.Chem.rdchem.Mol object at 0x7c2906126490>

>  <Drug_like>  (170) 
True

$$$$
Dihydroaspidospermatine
     RDKit          2D

 25 29  0  0  0  0  0  0  0  0999 V2000
    3.9786    2.1382    0.0000 C   0  0  0  0  0  0  0  0  0  0  0  0
    3.2411    0.3006    0.0000 C   0  0  0  0  0  0  0  0  0  0  0  0
    0.3307   -0.1153    0.0000 C   0  0  0  0  0  0  0  0  0  0  0  0
    0.8007   -1.5453    0.0000 C   0  0  0  0  0  0  0  0  0  0  0  0
    1.8007   -0.4253    0.0000 C   0  0  0  0  0  0  0  0  0  0  0  0
   -0.8793    2.6147    0.0000 C   0  0  0  0  0  0  0  0  0  0  0  0
   -1.8793    1.4947    0.0000 N   0  0  0  0  0  0  0  0  0  0  0  0
   -3.3493    1.1847    0.0000 C   0  0  0  0  0  0  0  0  0  0  0  0
   -3.5093   -0.3053    0.0000 C   0  0  0  0  0  0  0  0  0  0  0  0
   -2.1393   -0.9153    0.0000 C   0  0  0  0  0  0  0  0  0  0  0  0
   -3.6393   -0.9153    0.0000 C   0  0  0  0  0  0  0  0  0  0  0  0
   -4.6393    0.1947    0.0000 C   0  0  0  0  0  0  0  0  0  0  0  0
   -6.1093   -0.1153    0.0000 C   0  0  0  0  0  0  0  0  0  0  0  0
   -6.5693   -1.5453    0.0000 C   0  0  0  0  0  0  0  0  0  0  0  0
   -5.5693   -2.6553    0.0000 C   0  0  0  0  0  0  0  0  0  0  0  0
   -4.0993   -2.3453    0.0000 C   0  0  0  0  0  0  0  0  0  0  0  0
   -2.8893   -3.2253    0.0000 N   0  0  0  0  0  0  0  0  0  0  0  0
   -2.8922   -4.7253    0.0000 C   0  0  0  0  0  0  0  0  0  0  0  0
   -4.1927   -5.4728    0.0000 C   0  0  0  0  0  0  0  0  0  0  0  0
   -1.5947   -5.4779    0.0000 O   0  0  0  0  0  0  0  0  0  0  0  0
   -1.6693   -2.3453    0.0000 C   0  0  0  0  0  0  0  0  0  0  0  0
   -0.2093   -2.6553    0.0000 C   0  0  0  0  0  0  0  0  0  0  0  0
   -6.0338   -4.0816    0.0000 O   0  0  0  0  0  0  0  0  0  0  0  0
   -7.5012   -4.3925    0.0000 C   0  0  0  0  0  0  0  0  0  0  0  0
   -1.1293    0.1947    0.0000 C   0  0  0  0  0  0  0  0  0  0  0  0
  1  2  1  0
  2  3  1  0
  3  4  1  0
  4  5  1  0
  5  6  1  0
  6  7  1  0
  7  8  1  0
  8  9  1  0
 10  9  1  6
 10 11  1  0
 11 12  2  0
 12 13  1  0
 13 14  2  0
 14 15  1  0
 15 16  2  0
 11 16  1  0
 16 17  1  0
 17 18  1  0
 18 19  1  0
 18 20  2  0
 17 21  1  0
 10 21  1  0
 21 22  1  0
  4 22  1  0
 15 23  1  0
 23 24  1  0
 10 25  1  0
  3 25  1  0
  7 25  1  0
M  END
>  <cdk:Title>  (171) 
Dihydroaspidospermatine

>  <1A2>  (171) 
N

>  <2A6>  (171) 
N

>  <2B6>  (171) 
N

>  <2C8>  (171) 
N

>  <2C9>  (171) 
N

>  <2C19>  (171) 
N

>  <2D6>  (171) 
N

>  <2E1>  (171) 
N

>  <3A4>  (171) 
N

>  <Citation>  (171) 
Nucleic Acids Res. 2018. Jan 4;46(D1):D608-17. PMID:29140435
Nucleic Acids Res. 2018 Jan 4;46(D1):D1074-D1082. PMID:29126136
Nucleic Acids Res., 45:D380-388 (2017).  PMID:27924025
Nucleic Acids Res. 2016 Jan 4;44(D1):D1202-13. PMID:26400175

>  <ROMol>  (171) 
<rdkit.Chem.rdchem.Mol object at 0x7c2906126500>

>  <Drug_like>  (171) 
True

$$$$
AC1NSVJS
     RDKit          2D

 28 30  0  0  0  0  0  0  0  0999 V2000
   -6.7318    4.0477    0.0000 C   0  0  0  0  0  0  0  0  0  0  0  0
   -5.2327    4.1001    0.0000 C   0  0  0  0  0  0  0  0  0  0  0  0
   -3.8062    3.6365    0.0000 C   0  0  0  0  0  0  0  0  0  0  0  0
   -2.6914    4.6402    0.0000 C   0  0  0  0  0  0  0  0  0  0  0  0
   -3.0033    6.1075    0.0000 C   0  0  0  0  0  0  0  0  0  0  0  0
   -4.4299    6.5710    0.0000 C   0  0  0  0  0  0  0  0  0  0  0  0
   -5.0400    7.9413    0.0000 C   0  0  0  0  0  0  0  0  0  0  0  0
   -6.5318    7.7845    0.0000 C   0  0  0  0  0  0  0  0  0  0  0  0
   -6.8437    6.3173    0.0000 C   0  0  0  0  0  0  0  0  0  0  0  0
   -5.5446    5.5673    0.0000 C   0  0  0  0  0  0  0  0  0  0  0  0
   -7.9231    3.8392    0.0000 C   0  0  0  0  0  0  0  0  0  0  0  0
   -8.0236    7.6277    0.0000 C   0  0  0  0  0  0  0  0  0  0  0  0
   -9.5403    6.3550    0.0000 C   0  0  0  0  0  0  0  0  0  0  0  0
   -8.6337    8.9980    0.0000 C   0  0  0  0  0  0  0  0  0  0  0  0
   -7.5190   10.0017    0.0000 O   0  0  0  0  0  0  0  0  0  0  0  0
   -6.2199    9.2517    0.0000 C   0  0  0  0  0  0  0  0  0  0  0  0
   -4.8496    9.8618    0.0000 O   0  0  0  0  0  0  0  0  0  0  0  0
   -3.6134    8.4048    0.0000 O   0  0  0  0  0  0  0  0  0  0  0  0
   -3.3015    9.8721    0.0000 C   0  0  0  0  0  0  0  0  0  0  0  0
   -1.8750   10.3356    0.0000 C   0  0  0  0  0  0  0  0  0  0  0  0
   -4.4163   10.8757    0.0000 O   0  0  0  0  0  0  0  0  0  0  0  0
   -0.5448    6.1933    0.0000 O   0  0  0  0  0  0  0  0  0  0  0  0
    0.2501    4.9212    0.0000 C   0  0  0  0  0  0  0  0  0  0  0  0
    1.7492    4.9736    0.0000 C   0  0  0  0  0  0  0  0  0  0  0  0
    2.5440    3.7015    0.0000 C   0  0  0  0  0  0  0  0  0  0  0  0
    4.0431    3.7539    0.0000 S   0  0  0  0  0  0  0  0  0  0  0  0
    4.8380    2.4818    0.0000 C   0  0  0  0  0  0  0  0  0  0  0  0
   -0.4541    3.5968    0.0000 O   0  0  0  0  0  0  0  0  0  0  0  0
  1  2  1  0
  2  3  1  0
  3  4  1  0
  4  5  1  0
  5  6  1  0
  6  7  1  0
  7  8  1  0
  8  9  1  1
  9 10  1  0
  2 10  1  0
  6 10  1  0
 10 11  1  6
  8 12  1  0
 12 13  2  0
 12 14  1  0
 14 15  1  0
 15 16  1  0
  8 16  1  0
 16 17  2  0
  7 18  1  0
 18 19  1  0
 19 20  1  0
 19 21  2  0
  5 22  1  0
 22 23  1  0
 23 24  1  0
 24 25  2  0
 25 26  1  0
 26 27  1  0
 23 28  2  0
M  END
>  <cdk:Title>  (172) 
AC1NSVJS

>  <1A2>  (172) 
N

>  <2A6>  (172) 
N

>  <2B6>  (172) 
N

>  <2C8>  (172) 
N

>  <2C9>  (172) 
N

>  <2C19>  (172) 
N

>  <2D6>  (172) 
N

>  <2E1>  (172) 
N

>  <3A4>  (172) 
N

>  <Citation>  (172) 
Nucleic Acids Res. 2018. Jan 4;46(D1):D608-17. PMID:29140435
Nucleic Acids Res. 2018 Jan 4;46(D1):D1074-D1082. PMID:29126136
Nucleic Acids Res., 45:D380-388 (2017).  PMID:27924025
Nucleic Acids Res. 2016 Jan 4;44(D1):D1202-13. PMID:26400175

>  <ROMol>  (172) 
<rdkit.Chem.rdchem.Mol object at 0x7c2906126570>

>  <Drug_like>  (172) 
True

$$$$
Ixocarpanolide
     RDKit          2D

 34 39  0  0  0  0  0  0  0  0999 V2000
   -6.3373   -3.3884    0.0000 C   0  0  0  0  0  0  0  0  0  0  0  0
   -6.5937   -0.9418    0.0000 C   0  0  0  0  0  0  0  0  0  0  0  0
   -5.0966   -1.0473    0.0000 C   0  0  0  0  0  0  0  0  0  0  0  0
   -4.2575    0.1961    0.0000 C   0  0  0  0  0  0  0  0  0  0  0  0
   -1.8790    1.9242    0.0000 C   0  0  0  0  0  0  0  0  0  0  0  0
   -0.7718    3.5657    0.0000 C   0  0  0  0  0  0  0  0  0  0  0  0
   -0.5902   -0.7183    0.0000 C   0  0  0  0  0  0  0  0  0  0  0  0
    0.0199   -2.0886    0.0000 C   0  0  0  0  0  0  0  0  0  0  0  0
    1.5117   -1.9318    0.0000 C   0  0  0  0  0  0  0  0  0  0  0  0
    1.8236   -0.4646    0.0000 C   0  0  0  0  0  0  0  0  0  0  0  0
    3.1226    0.2854    0.0000 C   0  0  0  0  0  0  0  0  0  0  0  0
    3.1226    1.7854    0.0000 C   0  0  0  0  0  0  0  0  0  0  0  0
    1.8236    2.5354    0.0000 C   0  0  0  0  0  0  0  0  0  0  0  0
    0.5245    1.7854    0.0000 C   0  0  0  0  0  0  0  0  0  0  0  0
    0.5245    0.2854    0.0000 C   0  0  0  0  0  0  0  0  0  0  0  0
   -1.7228    1.2860    0.0000 C   0  0  0  0  0  0  0  0  0  0  0  0
    4.4216    2.5354    0.0000 C   0  0  0  0  0  0  0  0  0  0  0  0
    3.4316    4.2502    0.0000 C   0  0  0  0  0  0  0  0  0  0  0  0
    4.4216    4.0354    0.0000 C   0  0  0  0  0  0  0  0  0  0  0  0
    5.7207    4.7854    0.0000 C   0  0  0  0  0  0  0  0  0  0  0  0
    7.0197    4.0354    0.0000 C   0  0  0  0  0  0  0  0  0  0  0  0
    7.0197    2.5354    0.0000 C   0  0  0  0  0  0  0  0  0  0  0  0
    5.7207    1.7854    0.0000 C   0  0  0  0  0  0  0  0  0  0  0  0
    5.7207    0.2854    0.0000 C   0  0  0  0  0  0  0  0  0  0  0  0
    4.4216   -0.4646    0.0000 C   0  0  0  0  0  0  0  0  0  0  0  0
    5.7207   -1.2146    0.0000 O   0  0  0  0  0  0  0  0  0  0  0  0
    8.2668    0.3154    0.0000 O   0  0  0  0  0  0  0  0  0  0  0  0
    1.8755    5.5054    0.0000 O   0  0  0  0  0  0  0  0  0  0  0  0
   -3.6486    3.6330    0.0000 O   0  0  0  0  0  0  0  0  0  0  0  0
   -4.9156    1.5450    0.0000 O   0  0  0  0  0  0  0  0  0  0  0  0
   -6.4127    1.6505    0.0000 C   0  0  0  0  0  0  0  0  0  0  0  0
   -7.2518    0.4071    0.0000 C   0  0  0  0  0  0  0  0  0  0  0  0
   -9.2419   -1.0389    0.0000 C   0  0  0  0  0  0  0  0  0  0  0  0
   -7.0698    2.9989    0.0000 O   0  0  0  0  0  0  0  0  0  0  0  0
  1  2  1  0
  2  3  1  0
  3  4  1  0
  4  5  1  0
  5  6  1  1
  5  7  1  0
  7  8  1  0
  8  9  1  0
  9 10  1  0
 10 11  1  0
 11 12  1  0
 12 13  1  0
 13 14  1  0
 14 15  1  0
 10 15  1  0
  7 15  1  0
 15 16  1  1
 12 17  1  0
 17 18  1  6
 17 19  1  0
 19 20  1  0
 20 21  2  0
 21 22  1  0
 22 23  1  0
 17 23  1  0
 23 24  1  0
 24 25  1  0
 11 25  1  0
 25 26  1  0
 24 26  1  0
 23 27  1  6
 19 28  2  0
  5 29  1  0
  4 30  1  0
 30 31  1  0
 31 32  1  0
  2 32  1  0
 32 33  1  0
 31 34  2  0
M  END
>  <cdk:Title>  (173) 
Ixocarpanolide

>  <1A2>  (173) 
N

>  <2A6>  (173) 
N

>  <2B6>  (173) 
N

>  <2C8>  (173) 
N

>  <2C9>  (173) 
N

>  <2C19>  (173) 
N

>  <2D6>  (173) 
N

>  <2E1>  (173) 
N

>  <3A4>  (173) 
N

>  <Citation>  (173) 
Nucleic Acids Res. 2018. Jan 4;46(D1):D608-17. PMID:29140435
Nucleic Acids Res. 2018 Jan 4;46(D1):D1074-D1082. PMID:29126136
Nucleic Acids Res., 45:D380-388 (2017).  PMID:27924025
Nucleic Acids Res. 2016 Jan 4;44(D1):D1202-13. PMID:26400175

>  <ROMol>  (173) 
<rdkit.Chem.rdchem.Mol object at 0x7c29061265e0>

>  <Drug_like>  (173) 
True

$$$$
O-Methylmalonylcarnitine
     RDKit          2D

 18 17  0  0  0  0  0  0  0  0999 V2000
   14.5699   -1.3510    0.0000 C   0  0  0  0  0  0  0  0  0  0  0  0
   15.8427   -2.8678    0.0000 C   0  0  0  0  0  0  0  0  0  0  0  0
   15.3296   -4.2773    0.0000 C   0  0  0  0  0  0  0  0  0  0  0  0
   16.2938   -5.4264    0.0000 O   0  0  0  0  0  0  0  0  0  0  0  0
   13.8524   -4.5378    0.0000 O   0  0  0  0  0  0  0  0  0  0  0  0
   13.2709   -0.6010    0.0000 O   0  0  0  0  0  0  0  0  0  0  0  0
   11.9719   -1.3510    0.0000 C   0  0  0  0  0  0  0  0  0  0  0  0
   10.6728   -0.6010    0.0000 C   0  0  0  0  0  0  0  0  0  0  0  0
    9.3738   -1.3510    0.0000 C   0  0  0  0  0  0  0  0  0  0  0  0
    8.0748   -0.6010    0.0000 O   0  0  0  0  0  0  0  0  0  0  0  0
    9.3738   -2.8510    0.0000 O   0  0  0  0  0  0  0  0  0  0  0  0
    9.7087    0.5481    0.0000 C   0  0  0  0  0  0  0  0  0  0  0  0
   11.9719   -2.8510    0.0000 O   0  0  0  0  0  0  0  0  0  0  0  0
   17.1161    0.1190    0.0000 C   0  0  0  0  0  0  0  0  0  0  0  0
   17.1161    1.6190    0.0000 N   0  0  0  0  0  0  0  0  0  0  0  0
   15.8170    2.3690    0.0000 C   0  0  0  0  0  0  0  0  0  0  0  0
   17.9574    3.9307    0.0000 C   0  0  0  0  0  0  0  0  0  0  0  0
   20.0114    1.1085    0.0000 C   0  0  0  0  0  0  0  0  0  0  0  0
  1  2  1  0
  2  3  1  0
  3  4  2  0
  3  5  1  0
  1  6  1  0
  6  7  1  0
  7  8  1  0
  8  9  1  0
  9 10  1  0
  9 11  2  0
  8 12  1  0
  7 13  2  0
  1 14  1  0
 14 15  1  0
 15 16  1  0
 15 17  1  0
 15 18  1  0
M  CHG  2   5  -1  15   1
M  END
>  <cdk:Title>  (174) 
O-Methylmalonylcarnitine

>  <1A2>  (174) 
N

>  <2A6>  (174) 
N

>  <2B6>  (174) 
N

>  <2C8>  (174) 
N

>  <2C9>  (174) 
N

>  <2C19>  (174) 
N

>  <2D6>  (174) 
N

>  <2E1>  (174) 
N

>  <3A4>  (174) 
N

>  <Citation>  (174) 
Nucleic Acids Res. 2018. Jan 4;46(D1):D608-17. PMID:29140435
Nucleic Acids Res. 2018 Jan 4;46(D1):D1074-D1082. PMID:29126136
Nucleic Acids Res., 45:D380-388 (2017).  PMID:27924025
Nucleic Acids Res. 2016 Jan 4;44(D1):D1202-13. PMID:26400175

>  <ROMol>  (174) 
<rdkit.Chem.rdchem.Mol object at 0x7c29061268f0>

>  <Drug_like>  (174) 
True

$$$$
Sarmentoside C
     RDKit          2D

 40 45  0  0  0  0  0  0  0  0999 V2000
  -10.1141   -5.1025    0.0000 C   0  0  0  0  0  0  0  0  0  0  0  0
   -8.6375   -5.3665    0.0000 C   0  0  0  0  0  0  0  0  0  0  0  0
   -7.3488   -6.1143    0.0000 C   0  0  0  0  0  0  0  0  0  0  0  0
   -6.0390   -5.3714    0.0000 C   0  0  0  0  0  0  0  0  0  0  0  0
   -6.0338   -3.8482    0.0000 C   0  0  0  0  0  0  0  0  0  0  0  0
   -7.3225   -3.1004    0.0000 C   0  0  0  0  0  0  0  0  0  0  0  0
   -8.6337   -3.8657    0.0000 O   0  0  0  0  0  0  0  0  0  0  0  0
   -6.3585   -1.9512    0.0000 O   0  0  0  0  0  0  0  0  0  0  0  0
   -7.3643    0.8114    0.0000 C   0  0  0  0  0  0  0  0  0  0  0  0
   -5.8872    1.0721    0.0000 C   0  0  0  0  0  0  0  0  0  0  0  0
   -5.3746    2.4827    0.0000 C   0  0  0  0  0  0  0  0  0  0  0  0
   -6.3392    3.6326    0.0000 C   0  0  0  0  0  0  0  0  0  0  0  0
   -3.9167    4.0602    0.0000 C   0  0  0  0  0  0  0  0  0  0  0  0
   -2.9522    2.9114    0.0000 O   0  0  0  0  0  0  0  0  0  0  0  0
   -5.8266    5.0431    0.0000 C   0  0  0  0  0  0  0  0  0  0  0  0
   -6.7912    6.1930    0.0000 C   0  0  0  0  0  0  0  0  0  0  0  0
   -8.2684    5.9322    0.0000 C   0  0  0  0  0  0  0  0  0  0  0  0
   -8.7809    4.5216    0.0000 C   0  0  0  0  0  0  0  0  0  0  0  0
   -7.8164    3.3718    0.0000 C   0  0  0  0  0  0  0  0  0  0  0  0
   -8.3289    1.9612    0.0000 C   0  0  0  0  0  0  0  0  0  0  0  0
  -10.7116    2.8606    0.0000 O   0  0  0  0  0  0  0  0  0  0  0  0
   -6.2787    7.6036    0.0000 C   0  0  0  0  0  0  0  0  0  0  0  0
   -6.9803    8.9318    0.0000 C   0  0  0  0  0  0  0  0  0  0  0  0
   -5.9417   10.0088    0.0000 C   0  0  0  0  0  0  0  0  0  0  0  0
   -4.5971    9.3525    0.0000 C   0  0  0  0  0  0  0  0  0  0  0  0
   -3.9216   11.2137    0.0000 C   0  0  0  0  0  0  0  0  0  0  0  0
   -2.4802   11.6291    0.0000 C   0  0  0  0  0  0  0  0  0  0  0  0
   -2.4314   13.1209    0.0000 C   0  0  0  0  0  0  0  0  0  0  0  0
   -1.1869   13.9583    0.0000 O   0  0  0  0  0  0  0  0  0  0  0  0
   -3.8405   13.6411    0.0000 O   0  0  0  0  0  0  0  0  0  0  0  0
   -4.7568   12.4508    0.0000 C   0  0  0  0  0  0  0  0  0  0  0  0
   -4.8015    7.8643    0.0000 C   0  0  0  0  0  0  0  0  0  0  0  0
   -2.4378    8.5460    0.0000 C   0  0  0  0  0  0  0  0  0  0  0  0
   -3.8369    6.7145    0.0000 C   0  0  0  0  0  0  0  0  0  0  0  0
   -4.3495    5.3039    0.0000 C   0  0  0  0  0  0  0  0  0  0  0  0
   -1.9267    4.8778    0.0000 O   0  0  0  0  0  0  0  0  0  0  0  0
   -8.7329    7.4346    0.0000 O   0  0  0  0  0  0  0  0  0  0  0  0
   -4.5574   -4.1131    0.0000 O   0  0  0  0  0  0  0  0  0  0  0  0
   -5.5347   -6.7841    0.0000 O   0  0  0  0  0  0  0  0  0  0  0  0
   -8.3176   -7.2595    0.0000 O   0  0  0  0  0  0  0  0  0  0  0  0
  1  2  1  0
  2  3  1  0
  3  4  1  0
  4  5  1  0
  5  6  1  0
  6  7  1  0
  2  7  1  0
  6  8  1  0
  8  9  1  0
  9 10  1  0
 10 11  1  0
 11 12  1  0
 12 13  1  6
 13 14  2  0
 12 15  1  0
 15 16  1  0
 16 17  1  0
 17 18  1  0
 18 19  1  0
 12 19  1  0
 19 20  1  0
  9 20  1  0
 19 21  1  1
 16 22  1  0
 22 23  1  0
 23 24  1  0
 24 25  1  0
 25 26  1  0
 26 27  2  0
 27 28  1  0
 28 29  2  0
 28 30  1  0
 30 31  1  0
 26 31  1  0
 25 32  1  0
 22 32  1  0
 32 33  1  6
 32 34  1  0
 34 35  1  0
 15 35  1  0
 35 36  1  0
 22 37  1  1
  5 38  1  0
  4 39  1  0
  3 40  1  0
M  END
>  <cdk:Title>  (175) 
Sarmentoside C

>  <1A2>  (175) 
N

>  <2A6>  (175) 
N

>  <2B6>  (175) 
N

>  <2C8>  (175) 
N

>  <2C9>  (175) 
N

>  <2C19>  (175) 
N

>  <2D6>  (175) 
N

>  <2E1>  (175) 
N

>  <3A4>  (175) 
N

>  <Citation>  (175) 
Nucleic Acids Res. 2018. Jan 4;46(D1):D608-17. PMID:29140435
Nucleic Acids Res. 2018 Jan 4;46(D1):D1074-D1082. PMID:29126136
Nucleic Acids Res., 45:D380-388 (2017).  PMID:27924025
Nucleic Acids Res. 2016 Jan 4;44(D1):D1202-13. PMID:26400175

>  <ROMol>  (175) 
<rdkit.Chem.rdchem.Mol object at 0x7c2906126960>

>  <Drug_like>  (175) 
True

$$$$
15alpha-Acetoxy-3alpha-hydroxy-23-oxo-5alpha-lanosta-7_9(11)_24-trien-26-Oic aci
     RDKit          2D

 38 41  0  0  0  0  0  0  0  0999 V2000
    4.3565    5.1801    0.0000 C   0  0  0  0  0  0  0  0  0  0  0  0
    5.3199    4.0304    0.0000 C   0  0  0  0  0  0  0  0  0  0  0  0
    6.6185    3.2795    0.0000 C   0  0  0  0  0  0  0  0  0  0  0  0
    7.9180    4.0287    0.0000 C   0  0  0  0  0  0  0  0  0  0  0  0
    9.2166    3.2778    0.0000 C   0  0  0  0  0  0  0  0  0  0  0  0
   10.5161    4.0269    0.0000 C   0  0  0  0  0  0  0  0  0  0  0  0
   11.8146    3.2761    0.0000 C   0  0  0  0  0  0  0  0  0  0  0  0
   10.5171    5.5269    0.0000 C   0  0  0  0  0  0  0  0  0  0  0  0
    9.2185    6.2778    0.0000 O   0  0  0  0  0  0  0  0  0  0  0  0
   11.8166    6.2761    0.0000 O   0  0  0  0  0  0  0  0  0  0  0  0
    7.9190    5.5287    0.0000 O   0  0  0  0  0  0  0  0  0  0  0  0
    2.7729    2.5621    0.0000 C   0  0  0  0  0  0  0  0  0  0  0  0
    3.6529    1.3521    0.0000 C   0  0  0  0  0  0  0  0  0  0  0  0
    2.7729    0.1421    0.0000 C   0  0  0  0  0  0  0  0  0  0  0  0
    1.3429    0.6021    0.0000 C   0  0  0  0  0  0  0  0  0  0  0  0
    1.5524   -1.3668    0.0000 C   0  0  0  0  0  0  0  0  0  0  0  0
    0.0429   -0.1479    0.0000 C   0  0  0  0  0  0  0  0  0  0  0  0
    0.0429   -1.6479    0.0000 C   0  0  0  0  0  0  0  0  0  0  0  0
   -1.2571   -2.3979    0.0000 C   0  0  0  0  0  0  0  0  0  0  0  0
   -2.5571   -1.6479    0.0000 C   0  0  0  0  0  0  0  0  0  0  0  0
   -3.8571   -2.3979    0.0000 C   0  0  0  0  0  0  0  0  0  0  0  0
   -5.4382   -4.2826    0.0000 C   0  0  0  0  0  0  0  0  0  0  0  0
   -2.8519   -5.1607    0.0000 C   0  0  0  0  0  0  0  0  0  0  0  0
   -5.1571   -1.6479    0.0000 C   0  0  0  0  0  0  0  0  0  0  0  0
   -5.1571   -0.1479    0.0000 C   0  0  0  0  0  0  0  0  0  0  0  0
   -3.8571    0.6021    0.0000 C   0  0  0  0  0  0  0  0  0  0  0  0
   -2.5571   -0.1479    0.0000 C   0  0  0  0  0  0  0  0  0  0  0  0
   -2.5571    1.3521    0.0000 C   0  0  0  0  0  0  0  0  0  0  0  0
   -1.2571    0.6021    0.0000 C   0  0  0  0  0  0  0  0  0  0  0  0
   -1.2571    2.1021    0.0000 C   0  0  0  0  0  0  0  0  0  0  0  0
    0.0429    2.8521    0.0000 C   0  0  0  0  0  0  0  0  0  0  0  0
    1.3429    2.1021    0.0000 C   0  0  0  0  0  0  0  0  0  0  0  0
    1.6032    4.5482    0.0000 C   0  0  0  0  0  0  0  0  0  0  0  0
   -6.6344   -1.3876    0.0000 O   0  0  0  0  0  0  0  0  0  0  0  0
    2.1652   -1.2294    0.0000 O   0  0  0  0  0  0  0  0  0  0  0  0
    3.0491   -2.4413    0.0000 C   0  0  0  0  0  0  0  0  0  0  0  0
    2.4414   -3.8127    0.0000 C   0  0  0  0  0  0  0  0  0  0  0  0
    4.5406   -2.2818    0.0000 O   0  0  0  0  0  0  0  0  0  0  0  0
  1  2  1  0
  2  3  1  0
  3  4  1  0
  4  5  1  0
  5  6  2  0
  6  7  1  0
  6  8  1  0
  8  9  2  0
  8 10  1  0
  4 11  2  0
  2 12  1  0
 12 13  1  0
 13 14  1  0
 14 15  1  0
 15 16  1  6
 15 17  1  0
 17 18  2  0
 18 19  1  0
 19 20  1  0
 20 21  1  0
 21 22  1  0
 21 23  1  0
 21 24  1  0
 24 25  1  0
 25 26  1  0
 26 27  1  0
 20 27  1  0
 27 28  1  6
 27 29  1  0
 17 29  1  0
 29 30  2  0
 30 31  1  0
 31 32  1  0
 12 32  1  0
 15 32  1  0
 32 33  1  6
 24 34  1  0
 14 35  1  0
 35 36  1  0
 36 37  1  0
 36 38  2  0
M  END
>  <cdk:Title>  (176) 
15alpha-Acetoxy-3alpha-hydroxy-23-oxo-5alpha-lanosta-7_9(11)_24-trien-26-Oic acid

>  <1A2>  (176) 
N

>  <2A6>  (176) 
N

>  <2B6>  (176) 
N

>  <2C8>  (176) 
N

>  <2C9>  (176) 
N

>  <2C19>  (176) 
N

>  <2D6>  (176) 
N

>  <2E1>  (176) 
N

>  <3A4>  (176) 
N

>  <Citation>  (176) 
Nucleic Acids Res. 2018. Jan 4;46(D1):D608-17. PMID:29140435
Nucleic Acids Res. 2018 Jan 4;46(D1):D1074-D1082. PMID:29126136
Nucleic Acids Res., 45:D380-388 (2017).  PMID:27924025
Nucleic Acids Res. 2016 Jan 4;44(D1):D1202-13. PMID:26400175

>  <ROMol>  (176) 
<rdkit.Chem.rdchem.Mol object at 0x7c29061269d0>

>  <Drug_like>  (176) 
True

$$$$
Isointermedeol
     RDKit          2D

 16 17  0  0  0  0  0  0  0  0999 V2000
    0.2624    1.3643    0.0000 C   0  0  0  0  0  0  0  0  0  0  0  0
   -1.0376    0.6143    0.0000 C   0  0  0  0  0  0  0  0  0  0  0  0
   -1.0376   -0.8857    0.0000 C   0  0  0  0  0  0  0  0  0  0  0  0
    0.2624   -1.6357    0.0000 C   0  0  0  0  0  0  0  0  0  0  0  0
    1.5624   -0.8857    0.0000 C   0  0  0  0  0  0  0  0  0  0  0  0
    2.8624   -1.6357    0.0000 C   0  0  0  0  0  0  0  0  0  0  0  0
    0.9729   -3.8880    0.0000 C   0  0  0  0  0  0  0  0  0  0  0  0
    4.1624   -0.8857    0.0000 C   0  0  0  0  0  0  0  0  0  0  0  0
    4.1624    0.6143    0.0000 C   0  0  0  0  0  0  0  0  0  0  0  0
    2.8624    1.3643    0.0000 C   0  0  0  0  0  0  0  0  0  0  0  0
    1.5624    0.6143    0.0000 C   0  0  0  0  0  0  0  0  0  0  0  0
    1.5624    3.5543    0.0000 C   0  0  0  0  0  0  0  0  0  0  0  0
    4.1350   -3.1526    0.0000 O   0  0  0  0  0  0  0  0  0  0  0  0
   -3.4602   -0.4587    0.0000 C   0  0  0  0  0  0  0  0  0  0  0  0
   -4.4243   -1.6079    0.0000 C   0  0  0  0  0  0  0  0  0  0  0  0
   -3.9734    0.9507    0.0000 C   0  0  0  0  0  0  0  0  0  0  0  0
  1  2  1  0
  2  3  1  0
  3  4  1  0
  4  5  1  0
  5  6  1  0
  6  7  1  1
  6  8  1  0
  8  9  1  0
  9 10  1  0
 10 11  1  0
  1 11  1  0
  5 11  1  0
 11 12  1  1
  6 13  1  0
  3 14  1  0
 14 15  2  0
 14 16  1  0
M  END
>  <cdk:Title>  (177) 
Isointermedeol

>  <1A2>  (177) 
N

>  <2A6>  (177) 
N

>  <2B6>  (177) 
N

>  <2C8>  (177) 
N

>  <2C9>  (177) 
N

>  <2C19>  (177) 
N

>  <2D6>  (177) 
N

>  <2E1>  (177) 
N

>  <3A4>  (177) 
N

>  <Citation>  (177) 
Nucleic Acids Res. 2018. Jan 4;46(D1):D608-17. PMID:29140435
Nucleic Acids Res. 2018 Jan 4;46(D1):D1074-D1082. PMID:29126136
Nucleic Acids Res., 45:D380-388 (2017).  PMID:27924025
Nucleic Acids Res. 2016 Jan 4;44(D1):D1202-13. PMID:26400175

>  <ROMol>  (177) 
<rdkit.Chem.rdchem.Mol object at 0x7c2906126b20>

>  <Drug_like>  (177) 
True

$$$$
Purpurenin
     RDKit          2D

 45 47  0  0  0  0  0  0  0  0999 V2000
  -26.5547   -4.7053    0.0000 C   0  0  0  0  0  0  0  0  0  0  0  0
  -25.0888   -4.3872    0.0000 C   0  0  0  0  0  0  0  0  0  0  0  0
  -24.6314   -2.9587    0.0000 C   0  0  0  0  0  0  0  0  0  0  0  0
  -22.2273   -2.4370    0.0000 C   0  0  0  0  0  0  0  0  0  0  0  0
  -21.4771   -0.0942    0.0000 C   0  0  0  0  0  0  0  0  0  0  0  0
  -19.0731    0.4275    0.0000 C   0  0  0  0  0  0  0  0  0  0  0  0
  -18.4692    2.3132    0.0000 C   0  0  0  0  0  0  0  0  0  0  0  0
  -16.0652    2.8349    0.0000 C   0  0  0  0  0  0  0  0  0  0  0  0
  -15.3149    5.1777    0.0000 C   0  0  0  0  0  0  0  0  0  0  0  0
  -13.3800    5.5976    0.0000 C   0  0  0  0  0  0  0  0  0  0  0  0
  -12.9225    7.0261    0.0000 C   0  0  0  0  0  0  0  0  0  0  0  0
  -10.5185    7.5478    0.0000 C   0  0  0  0  0  0  0  0  0  0  0  0
  -10.9904    8.9739    0.0000 C   0  0  0  0  0  0  0  0  0  0  0  0
   -9.7790    9.8586    0.0000 C   0  0  0  0  0  0  0  0  0  0  0  0
   -8.5642    8.9751    0.0000 C   0  0  0  0  0  0  0  0  0  0  0  0
   -6.3151    7.9785    0.0000 C   0  0  0  0  0  0  0  0  0  0  0  0
   -5.8551    9.4085    0.0000 C   0  0  0  0  0  0  0  0  0  0  0  0
   -4.3551    9.4085    0.0000 C   0  0  0  0  0  0  0  0  0  0  0  0
   -3.8951    7.9785    0.0000 C   0  0  0  0  0  0  0  0  0  0  0  0
   -3.1459    6.6790    0.0000 C   0  0  0  0  0  0  0  0  0  0  0  0
   -1.1659    6.6777    0.0000 C   0  0  0  0  0  0  0  0  0  0  0  0
   -0.1770    4.9623    0.0000 C   0  0  0  0  0  0  0  0  0  0  0  0
    2.2830    4.9607    0.0000 C   0  0  0  0  0  0  0  0  0  0  0  0
    3.2718    3.2453    0.0000 C   0  0  0  0  0  0  0  0  0  0  0  0
    5.7318    3.2437    0.0000 C   0  0  0  0  0  0  0  0  0  0  0  0
    6.9604    1.1125    0.0000 C   0  0  0  0  0  0  0  0  0  0  0  0
    9.4204    1.1108    0.0000 C   0  0  0  0  0  0  0  0  0  0  0  0
   10.6490   -1.0204    0.0000 C   0  0  0  0  0  0  0  0  0  0  0  0
   13.1090   -1.0220    0.0000 C   0  0  0  0  0  0  0  0  0  0  0  0
   14.3376   -3.1533    0.0000 C   0  0  0  0  0  0  0  0  0  0  0  0
   16.3176   -3.1546    0.0000 C   0  0  0  0  0  0  0  0  0  0  0  0
   17.0668   -4.4541    0.0000 C   0  0  0  0  0  0  0  0  0  0  0  0
   18.5668   -4.4551    0.0000 C   0  0  0  0  0  0  0  0  0  0  0  0
   19.4482   -5.6688    0.0000 C   0  0  0  0  0  0  0  0  0  0  0  0
   20.8675   -5.2066    0.0000 C   0  0  0  0  0  0  0  0  0  0  0  0
   22.3598   -5.0555    0.0000 C   0  0  0  0  0  0  0  0  0  0  0  0
   20.8766   -3.7046    0.0000 O   0  0  0  0  0  0  0  0  0  0  0  0
   19.4454   -3.2485    0.0000 C   0  0  0  0  0  0  0  0  0  0  0  0
   18.9787   -1.8229    0.0000 O   0  0  0  0  0  0  0  0  0  0  0  0
    5.4723    4.7211    0.0000 O   0  0  0  0  0  0  0  0  0  0  0  0
   -4.5558    6.1669    0.0000 O   0  0  0  0  0  0  0  0  0  0  0  0
   -5.1051    7.0985    0.0000 O   0  0  0  0  0  0  0  0  0  0  0  0
   -9.0223    7.5508    0.0000 O   0  0  0  0  0  0  0  0  0  0  0  0
  -13.0001    9.0046    0.0000 O   0  0  0  0  0  0  0  0  0  0  0  0
  -19.0143   -1.0713    0.0000 O   0  0  0  0  0  0  0  0  0  0  0  0
  1  2  1  0
  2  3  1  0
  3  4  1  0
  4  5  1  0
  5  6  1  0
  6  7  1  0
  7  8  1  0
  8  9  1  0
  9 10  1  0
 10 11  1  0
 11 12  1  0
 12 13  1  0
 13 14  1  0
 14 15  1  0
 15 16  1  0
 16 17  1  0
 17 18  1  0
 18 19  1  0
 19 20  1  0
 20 21  1  0
 21 22  1  0
 22 23  1  0
 23 24  1  0
 24 25  1  0
 25 26  1  0
 26 27  1  0
 27 28  1  0
 28 29  1  0
 29 30  1  0
 30 31  1  0
 31 32  1  0
 32 33  1  0
 33 34  2  0
 34 35  1  0
 35 36  1  0
 35 37  1  0
 37 38  1  0
 33 38  1  0
 38 39  2  0
 25 40  1  0
 20 41  1  0
 19 42  1  0
 16 42  1  0
 15 43  1  0
 12 43  1  0
 11 44  1  0
  6 45  1  0
M  END
>  <cdk:Title>  (178) 
Purpurenin

>  <1A2>  (178) 
N

>  <2A6>  (178) 
N

>  <2B6>  (178) 
N

>  <2C8>  (178) 
N

>  <2C9>  (178) 
N

>  <2C19>  (178) 
N

>  <2D6>  (178) 
N

>  <2E1>  (178) 
N

>  <3A4>  (178) 
N

>  <Citation>  (178) 
Nucleic Acids Res. 2018. Jan 4;46(D1):D608-17. PMID:29140435
Nucleic Acids Res. 2018 Jan 4;46(D1):D1074-D1082. PMID:29126136
Nucleic Acids Res., 45:D380-388 (2017).  PMID:27924025
Nucleic Acids Res. 2016 Jan 4;44(D1):D1202-13. PMID:26400175

>  <ROMol>  (178) 
<rdkit.Chem.rdchem.Mol object at 0x7c2906126b90>

>  <Drug_like>  (178) 
True

$$$$
J3.608.300J
     RDKit          2D

 13 14  0  0  0  0  0  0  0  0999 V2000
    2.1853   -2.6360    0.0000 C   0  0  0  0  0  0  0  0  0  0  0  0
    1.7200   -1.2100    0.0000 N   0  0  0  0  0  0  0  0  0  0  0  0
    2.6000   -0.0000    0.0000 C   0  0  0  0  0  0  0  0  0  0  0  0
    1.7200    1.2100    0.0000 C   0  0  0  0  0  0  0  0  0  0  0  0
    3.0195    1.9591    0.0000 O   0  0  0  0  0  0  0  0  0  0  0  0
    0.2900    0.7500    0.0000 C   0  0  0  0  0  0  0  0  0  0  0  0
   -1.0100    1.5000    0.0000 C   0  0  0  0  0  0  0  0  0  0  0  0
   -2.3100    0.7500    0.0000 C   0  0  0  0  0  0  0  0  0  0  0  0
   -3.6089    1.5002    0.0000 O   0  0  0  0  0  0  0  0  0  0  0  0
   -2.3100   -0.7500    0.0000 C   0  0  0  0  0  0  0  0  0  0  0  0
   -3.6089   -1.5002    0.0000 O   0  0  0  0  0  0  0  0  0  0  0  0
   -1.0100   -1.5000    0.0000 C   0  0  0  0  0  0  0  0  0  0  0  0
    0.2900   -0.7500    0.0000 C   0  0  0  0  0  0  0  0  0  0  0  0
  1  2  1  0
  2  3  1  0
  3  4  1  0
  4  5  1  0
  4  6  1  0
  6  7  2  0
  7  8  1  0
  8  9  1  0
  8 10  2  0
 10 11  1  0
 10 12  1  0
 12 13  2  0
  2 13  1  0
  6 13  1  0
M  END
>  <cdk:Title>  (179) 
J3.608.300J

>  <1A2>  (179) 
N

>  <2A6>  (179) 
N

>  <2B6>  (179) 
N

>  <2C8>  (179) 
N

>  <2C9>  (179) 
N

>  <2C19>  (179) 
N

>  <2D6>  (179) 
N

>  <2E1>  (179) 
N

>  <3A4>  (179) 
N

>  <Citation>  (179) 
Nucleic Acids Res. 2018. Jan 4;46(D1):D608-17. PMID:29140435
Nucleic Acids Res. 2018 Jan 4;46(D1):D1074-D1082. PMID:29126136
Nucleic Acids Res., 45:D380-388 (2017).  PMID:27924025
Nucleic Acids Res. 2016 Jan 4;44(D1):D1202-13. PMID:26400175

>  <ROMol>  (179) 
<rdkit.Chem.rdchem.Mol object at 0x7c2906126ce0>

>  <Drug_like>  (179) 
True

$$$$
N2-Tryptophyllysine
     RDKit          2D

 24 25  0  0  0  0  0  0  0  0999 V2000
   12.4113    4.4894    0.0000 N   0  0  0  0  0  0  0  0  0  0  0  0
   10.9430    4.1825    0.0000 C   0  0  0  0  0  0  0  0  0  0  0  0
    9.9431    5.3007    0.0000 C   0  0  0  0  0  0  0  0  0  0  0  0
    7.5351    4.7974    0.0000 C   0  0  0  0  0  0  0  0  0  0  0  0
    6.5352    5.9155    0.0000 C   0  0  0  0  0  0  0  0  0  0  0  0
    5.0670    5.6086    0.0000 C   0  0  0  0  0  0  0  0  0  0  0  0
    4.5986    4.1836    0.0000 N   0  0  0  0  0  0  0  0  0  0  0  0
    3.1303    3.8767    0.0000 C   0  0  0  0  0  0  0  0  0  0  0  0
    2.1304    4.9948    0.0000 O   0  0  0  0  0  0  0  0  0  0  0  0
    2.6619    2.4517    0.0000 C   0  0  0  0  0  0  0  0  0  0  0  0
    2.7092    0.9525    0.0000 N   0  0  0  0  0  0  0  0  0  0  0  0
    1.1937    2.1448    0.0000 C   0  0  0  0  0  0  0  0  0  0  0  0
    0.5754    0.2638    0.0000 C   0  0  0  0  0  0  0  0  0  0  0  0
    1.4554   -0.9462    0.0000 C   0  0  0  0  0  0  0  0  0  0  0  0
    0.5754   -2.1562    0.0000 N   0  0  0  0  0  0  0  0  0  0  0  0
   -0.8546   -1.6862    0.0000 C   0  0  0  0  0  0  0  0  0  0  0  0
   -0.8446   -0.1862    0.0000 C   0  0  0  0  0  0  0  0  0  0  0  0
   -2.1446    0.5638    0.0000 C   0  0  0  0  0  0  0  0  0  0  0  0
   -3.4446   -0.1762    0.0000 C   0  0  0  0  0  0  0  0  0  0  0  0
   -3.4546   -1.6762    0.0000 C   0  0  0  0  0  0  0  0  0  0  0  0
   -2.1546   -2.4362    0.0000 C   0  0  0  0  0  0  0  0  0  0  0  0
    5.0046    7.5876    0.0000 C   0  0  0  0  0  0  0  0  0  0  0  0
    6.2793    8.3782    0.0000 O   0  0  0  0  0  0  0  0  0  0  0  0
    3.6825    8.2963    0.0000 O   0  0  0  0  0  0  0  0  0  0  0  0
  1  2  1  0
  2  3  1  0
  3  4  1  0
  4  5  1  0
  5  6  1  0
  6  7  1  0
  7  8  1  0
  8  9  2  0
  8 10  1  0
 10 11  1  0
 10 12  1  0
 12 13  1  0
 13 14  2  0
 14 15  1  0
 15 16  1  0
 16 17  2  0
 13 17  1  0
 17 18  1  0
 18 19  2  0
 19 20  1  0
 20 21  2  0
 16 21  1  0
  6 22  1  0
 22 23  1  0
 22 24  2  0
M  END
>  <cdk:Title>  (180) 
N2-Tryptophyllysine

>  <1A2>  (180) 
N

>  <2A6>  (180) 
N

>  <2B6>  (180) 
N

>  <2C8>  (180) 
N

>  <2C9>  (180) 
N

>  <2C19>  (180) 
N

>  <2D6>  (180) 
N

>  <2E1>  (180) 
N

>  <3A4>  (180) 
N

>  <Citation>  (180) 
Nucleic Acids Res. 2018. Jan 4;46(D1):D608-17. PMID:29140435
Nucleic Acids Res. 2018 Jan 4;46(D1):D1074-D1082. PMID:29126136
Nucleic Acids Res., 45:D380-388 (2017).  PMID:27924025
Nucleic Acids Res. 2016 Jan 4;44(D1):D1202-13. PMID:26400175

>  <ROMol>  (180) 
<rdkit.Chem.rdchem.Mol object at 0x7c2906126dc0>

>  <Drug_like>  (180) 
True

$$$$
Chlorogenin
     RDKit          2D

 31 36  0  0  0  0  0  0  0  0999 V2000
    8.4283   -5.3359    0.0000 C   0  0  0  0  0  0  0  0  0  0  0  0
    5.9910   -3.6918    0.0000 C   0  0  0  0  0  0  0  0  0  0  0  0
    5.1093   -2.4783    0.0000 C   0  0  0  0  0  0  0  0  0  0  0  0
    3.6175   -2.6351    0.0000 C   0  0  0  0  0  0  0  0  0  0  0  0
    3.0074   -4.0054    0.0000 C   0  0  0  0  0  0  0  0  0  0  0  0
    2.0037   -2.8907    0.0000 C   0  0  0  0  0  0  0  0  0  0  0  0
    3.2172   -2.0090    0.0000 C   0  0  0  0  0  0  0  0  0  0  0  0
    0.6334   -3.5008    0.0000 C   0  0  0  0  0  0  0  0  0  0  0  0
    0.7902   -4.9926    0.0000 C   0  0  0  0  0  0  0  0  0  0  0  0
   -0.5801   -5.6027    0.0000 C   0  0  0  0  0  0  0  0  0  0  0  0
   -1.5838   -4.4880    0.0000 C   0  0  0  0  0  0  0  0  0  0  0  0
   -3.0838   -4.4880    0.0000 C   0  0  0  0  0  0  0  0  0  0  0  0
   -3.8338   -5.7870    0.0000 C   0  0  0  0  0  0  0  0  0  0  0  0
   -5.3338   -5.7870    0.0000 C   0  0  0  0  0  0  0  0  0  0  0  0
   -6.0838   -4.4880    0.0000 C   0  0  0  0  0  0  0  0  0  0  0  0
   -7.5838   -4.4880    0.0000 C   0  0  0  0  0  0  0  0  0  0  0  0
   -8.3338   -3.1889    0.0000 C   0  0  0  0  0  0  0  0  0  0  0  0
   -7.5838   -1.8899    0.0000 C   0  0  0  0  0  0  0  0  0  0  0  0
   -6.0838   -1.8899    0.0000 C   0  0  0  0  0  0  0  0  0  0  0  0
   -5.3338   -3.1889    0.0000 C   0  0  0  0  0  0  0  0  0  0  0  0
   -4.0611   -1.6722    0.0000 C   0  0  0  0  0  0  0  0  0  0  0  0
   -3.8338   -3.1889    0.0000 C   0  0  0  0  0  0  0  0  0  0  0  0
   -3.0838   -1.8899    0.0000 C   0  0  0  0  0  0  0  0  0  0  0  0
   -1.5838   -1.8899    0.0000 C   0  0  0  0  0  0  0  0  0  0  0  0
   -0.8338   -3.1889    0.0000 C   0  0  0  0  0  0  0  0  0  0  0  0
    0.8942   -0.8104    0.0000 C   0  0  0  0  0  0  0  0  0  0  0  0
   -9.4829   -2.2248    0.0000 O   0  0  0  0  0  0  0  0  0  0  0  0
   -7.6455   -6.6284    0.0000 O   0  0  0  0  0  0  0  0  0  0  0  0
    2.2574   -5.3045    0.0000 O   0  0  0  0  0  0  0  0  0  0  0  0
    3.8891   -5.2189    0.0000 O   0  0  0  0  0  0  0  0  0  0  0  0
    5.3809   -5.0622    0.0000 C   0  0  0  0  0  0  0  0  0  0  0  0
  1  2  1  0
  2  3  1  0
  3  4  1  0
  5  4  1  6
  5  6  1  0
  6  7  1  0
  6  8  1  0
  8  9  1  0
  9 10  1  0
 10 11  1  0
 11 12  1  0
 12 13  1  0
 13 14  1  0
 14 15  1  0
 15 16  1  0
 16 17  1  0
 17 18  1  0
 18 19  1  0
 19 20  1  0
 15 20  1  0
 20 21  1  1
 20 22  1  0
 12 22  1  0
 22 23  1  0
 23 24  1  0
 24 25  1  0
 11 25  1  0
  8 25  1  0
 25 26  1  1
 17 27  1  0
 14 28  1  0
  9 29  1  0
  5 29  1  0
  5 30  1  0
 30 31  1  0
  2 31  1  0
M  END
>  <cdk:Title>  (181) 
Chlorogenin

>  <1A2>  (181) 
N

>  <2A6>  (181) 
N

>  <2B6>  (181) 
N

>  <2C8>  (181) 
N

>  <2C9>  (181) 
N

>  <2C19>  (181) 
N

>  <2D6>  (181) 
N

>  <2E1>  (181) 
N

>  <3A4>  (181) 
N

>  <Citation>  (181) 
Nucleic Acids Res. 2018. Jan 4;46(D1):D608-17. PMID:29140435
Nucleic Acids Res. 2018 Jan 4;46(D1):D1074-D1082. PMID:29126136
Nucleic Acids Res., 45:D380-388 (2017).  PMID:27924025
Nucleic Acids Res. 2016 Jan 4;44(D1):D1202-13. PMID:26400175

>  <ROMol>  (181) 
<rdkit.Chem.rdchem.Mol object at 0x7c2906126e30>

>  <Drug_like>  (181) 
True

$$$$
HPHP Dipeptide
     RDKit          2D

 17 18  0  0  0  0  0  0  0  0999 V2000
    1.4404    3.0184    0.0000 C   0  0  0  0  0  0  0  0  0  0  0  0
    2.4399    4.1369    0.0000 O   0  0  0  0  0  0  0  0  0  0  0  0
    1.9093    1.5936    0.0000 C   0  0  0  0  0  0  0  0  0  0  0  0
    3.2814    2.2101    0.0000 N   0  0  0  0  0  0  0  0  0  0  0  0
    4.2848    1.0881    0.0000 C   0  0  0  0  0  0  0  0  0  0  0  0
    3.5348   -0.2110    0.0000 C   0  0  0  0  0  0  0  0  0  0  0  0
    3.0625   -1.6346    0.0000 O   0  0  0  0  0  0  0  0  0  0  0  0
    2.0714    0.1143    0.0000 C   0  0  0  0  0  0  0  0  0  0  0  0
   -0.9677    3.5208    0.0000 N   0  0  0  0  0  0  0  0  0  0  0  0
   -2.0861    2.5181    0.0000 C   0  0  0  0  0  0  0  0  0  0  0  0
   -3.3822    3.2584    0.0000 C   0  0  0  0  0  0  0  0  0  0  0  0
   -4.8107    3.7161    0.0000 O   0  0  0  0  0  0  0  0  0  0  0  0
   -3.0759    4.7268    0.0000 C   0  0  0  0  0  0  0  0  0  0  0  0
   -1.5919    4.8871    0.0000 C   0  0  0  0  0  0  0  0  0  0  0  0
   -0.1687    5.3611    0.0000 C   0  0  0  0  0  0  0  0  0  0  0  0
    0.9534    4.3656    0.0000 O   0  0  0  0  0  0  0  0  0  0  0  0
    0.1323    6.8306    0.0000 O   0  0  0  0  0  0  0  0  0  0  0  0
  1  2  2  0
  1  3  1  0
  3  4  1  0
  4  5  1  0
  5  6  1  0
  6  7  1  0
  6  8  1  0
  3  8  1  0
  1  9  1  0
  9 10  1  0
 10 11  1  0
 11 12  1  0
 11 13  1  0
 13 14  1  0
  9 14  1  0
 14 15  1  0
 15 16  2  0
 15 17  1  0
M  END
>  <cdk:Title>  (182) 
HPHP Dipeptide

>  <1A2>  (182) 
N

>  <2A6>  (182) 
N

>  <2B6>  (182) 
N

>  <2C8>  (182) 
N

>  <2C9>  (182) 
N

>  <2C19>  (182) 
N

>  <2D6>  (182) 
N

>  <2E1>  (182) 
N

>  <3A4>  (182) 
N

>  <Citation>  (182) 
Nucleic Acids Res. 2018. Jan 4;46(D1):D608-17. PMID:29140435
Nucleic Acids Res. 2018 Jan 4;46(D1):D1074-D1082. PMID:29126136
Nucleic Acids Res., 45:D380-388 (2017).  PMID:27924025
Nucleic Acids Res. 2016 Jan 4;44(D1):D1202-13. PMID:26400175

>  <ROMol>  (182) 
<rdkit.Chem.rdchem.Mol object at 0x7c2906126f10>

>  <Drug_like>  (182) 
True

$$$$
DL-Hexanoylcarnitine
     RDKit          2D

 18 17  0  0  0  0  0  0  0  0999 V2000
   10.2452   -2.7959    0.0000 N   0  0  0  0  0  0  0  0  0  0  0  0
   10.2452   -4.2959    0.0000 C   0  0  0  0  0  0  0  0  0  0  0  0
   12.7913   -5.7659    0.0000 C   0  0  0  0  0  0  0  0  0  0  0  0
   11.2101   -7.6503    0.0000 C   0  0  0  0  0  0  0  0  0  0  0  0
   11.7231   -9.0599    0.0000 C   0  0  0  0  0  0  0  0  0  0  0  0
   10.7589  -10.2089    0.0000 O   0  0  0  0  0  0  0  0  0  0  0  0
   13.2003   -9.3203    0.0000 O   0  0  0  0  0  0  0  0  0  0  0  0
   14.0904   -5.0159    0.0000 O   0  0  0  0  0  0  0  0  0  0  0  0
   15.3894   -5.7659    0.0000 C   0  0  0  0  0  0  0  0  0  0  0  0
   16.6884   -5.0159    0.0000 C   0  0  0  0  0  0  0  0  0  0  0  0
   17.9875   -5.7659    0.0000 C   0  0  0  0  0  0  0  0  0  0  0  0
   20.1179   -4.5359    0.0000 C   0  0  0  0  0  0  0  0  0  0  0  0
   21.4169   -5.2859    0.0000 C   0  0  0  0  0  0  0  0  0  0  0  0
   22.7160   -4.5359    0.0000 C   0  0  0  0  0  0  0  0  0  0  0  0
   15.3894   -7.2659    0.0000 O   0  0  0  0  0  0  0  0  0  0  0  0
   11.5442   -2.0459    0.0000 C   0  0  0  0  0  0  0  0  0  0  0  0
    9.4038   -0.4842    0.0000 C   0  0  0  0  0  0  0  0  0  0  0  0
    7.3499   -3.3064    0.0000 C   0  0  0  0  0  0  0  0  0  0  0  0
  1  2  1  0
  2  3  1  0
  3  4  1  0
  4  5  1  0
  5  6  1  0
  5  7  2  0
  3  8  1  0
  8  9  1  0
  9 10  1  0
 10 11  1  0
 11 12  1  0
 12 13  1  0
 13 14  1  0
  9 15  2  0
  1 16  1  0
  1 17  1  0
  1 18  1  0
M  CHG  2   1   1   6  -1
M  END
>  <cdk:Title>  (183) 
DL-Hexanoylcarnitine

>  <1A2>  (183) 
N

>  <2A6>  (183) 
N

>  <2B6>  (183) 
N

>  <2C8>  (183) 
N

>  <2C9>  (183) 
N

>  <2C19>  (183) 
N

>  <2D6>  (183) 
N

>  <2E1>  (183) 
N

>  <3A4>  (183) 
N

>  <Citation>  (183) 
Nucleic Acids Res. 2018. Jan 4;46(D1):D608-17. PMID:29140435
Nucleic Acids Res. 2018 Jan 4;46(D1):D1074-D1082. PMID:29126136
Nucleic Acids Res., 45:D380-388 (2017).  PMID:27924025
Nucleic Acids Res. 2016 Jan 4;44(D1):D1202-13. PMID:26400175

>  <ROMol>  (183) 
<rdkit.Chem.rdchem.Mol object at 0x7c2906126ff0>

>  <Drug_like>  (183) 
True

$$$$
AC1naxih
     RDKit          2D

 24 25  0  0  0  0  0  0  0  0999 V2000
   -2.6059    1.6847    0.0000 C   0  0  0  0  0  0  0  0  0  0  0  0
   -1.4568    0.7206    0.0000 C   0  0  0  0  0  0  0  0  0  0  0  0
   -0.0466    1.2345    0.0000 C   0  0  0  0  0  0  0  0  0  0  0  0
    0.2143    2.7125    0.0000 C   0  0  0  0  0  0  0  0  0  0  0  0
   -0.9349    3.6766    0.0000 C   0  0  0  0  0  0  0  0  0  0  0  0
   -2.3450    3.1626    0.0000 C   0  0  0  0  0  0  0  0  0  0  0  0
   -3.4942    4.1267    0.0000 C   0  0  0  0  0  0  0  0  0  0  0  0
   -5.4440    3.7827    0.0000 C   0  0  0  0  0  0  0  0  0  0  0  0
   -5.9569    2.3731    0.0000 C   0  0  0  0  0  0  0  0  0  0  0  0
   -4.9926    1.2241    0.0000 O   0  0  0  0  0  0  0  0  0  0  0  0
   -7.4341    2.1125    0.0000 O   0  0  0  0  0  0  0  0  0  0  0  0
   -7.9470    0.7029    0.0000 C   0  0  0  0  0  0  0  0  0  0  0  0
   -9.2462    1.4526    0.0000 C   0  0  0  0  0  0  0  0  0  0  0  0
  -10.5455    0.7015    0.0000 C   0  0  0  0  0  0  0  0  0  0  0  0
  -10.5457   -0.7994    0.0000 C   0  0  0  0  0  0  0  0  0  0  0  0
   -9.2465   -1.5491    0.0000 C   0  0  0  0  0  0  0  0  0  0  0  0
   -7.9471   -0.7980    0.0000 C   0  0  0  0  0  0  0  0  0  0  0  0
   -6.4700   -0.5373    0.0000 O   0  0  0  0  0  0  0  0  0  0  0  0
   -8.2818   -2.6977    0.0000 O   0  0  0  0  0  0  0  0  0  0  0  0
  -11.8447    1.4512    0.0000 C   0  0  0  0  0  0  0  0  0  0  0  0
  -11.8451    2.9512    0.0000 O   0  0  0  0  0  0  0  0  0  0  0  0
  -13.1436    0.7009    0.0000 O   0  0  0  0  0  0  0  0  0  0  0  0
    1.6239    3.2255    0.0000 O   0  0  0  0  0  0  0  0  0  0  0  0
    1.1025    0.2705    0.0000 O   0  0  0  0  0  0  0  0  0  0  0  0
  1  2  2  0
  2  3  1  0
  3  4  2  0
  4  5  1  0
  5  6  2  0
  1  6  1  0
  6  7  1  0
  7  8  2  0
  8  9  1  0
  9 10  2  0
  9 11  1  0
 11 12  1  0
 12 13  1  0
 13 14  1  0
 14 15  2  0
 15 16  1  0
 16 17  1  0
 12 17  1  0
 17 18  1  0
 16 19  1  0
 14 20  1  0
 20 21  2  0
 20 22  1  0
  4 23  1  0
  3 24  1  0
M  END
>  <cdk:Title>  (184) 
AC1naxih

>  <1A2>  (184) 
N

>  <2A6>  (184) 
N

>  <2B6>  (184) 
N

>  <2C8>  (184) 
N

>  <2C9>  (184) 
N

>  <2C19>  (184) 
N

>  <2D6>  (184) 
N

>  <2E1>  (184) 
N

>  <3A4>  (184) 
N

>  <Citation>  (184) 
Nucleic Acids Res. 2018. Jan 4;46(D1):D608-17. PMID:29140435
Nucleic Acids Res. 2018 Jan 4;46(D1):D1074-D1082. PMID:29126136
Nucleic Acids Res., 45:D380-388 (2017).  PMID:27924025
Nucleic Acids Res. 2016 Jan 4;44(D1):D1202-13. PMID:26400175

>  <ROMol>  (184) 
<rdkit.Chem.rdchem.Mol object at 0x7c2906127060>

>  <Drug_like>  (184) 
True

$$$$
Kanzonol y
     RDKit          2D

 30 31  0  0  0  0  0  0  0  0999 V2000
    9.0937   10.0867    0.0000 C   0  0  0  0  0  0  0  0  0  0  0  0
    9.0942    8.5867    0.0000 C   0  0  0  0  0  0  0  0  0  0  0  0
   10.3935    7.8371    0.0000 C   0  0  0  0  0  0  0  0  0  0  0  0
    7.7954    7.8362    0.0000 C   0  0  0  0  0  0  0  0  0  0  0  0
    6.4962    8.5858    0.0000 C   0  0  0  0  0  0  0  0  0  0  0  0
    5.1974    7.8354    0.0000 C   0  0  0  0  0  0  0  0  0  0  0  0
    3.8976    8.5858    0.0000 C   0  0  0  0  0  0  0  0  0  0  0  0
    2.5988    7.8354    0.0000 C   0  0  0  0  0  0  0  0  0  0  0  0
    2.5998    6.3346    0.0000 C   0  0  0  0  0  0  0  0  0  0  0  0
    3.8995    5.5842    0.0000 C   0  0  0  0  0  0  0  0  0  0  0  0
    5.1983    6.3346    0.0000 C   0  0  0  0  0  0  0  0  0  0  0  0
    6.4977    5.5852    0.0000 O   0  0  0  0  0  0  0  0  0  0  0  0
    1.2994    8.5848    0.0000 C   0  0  0  0  0  0  0  0  0  0  0  0
    0.0007    7.8342    0.0000 C   0  0  0  0  0  0  0  0  0  0  0  0
   -1.2987    8.5835    0.0000 C   0  0  0  0  0  0  0  0  0  0  0  0
   -2.5974    7.8329    0.0000 C   0  0  0  0  0  0  0  0  0  0  0  0
   -3.8976    8.5825    0.0000 C   0  0  0  0  0  0  0  0  0  0  0  0
   -5.1974    7.8321    0.0000 C   0  0  0  0  0  0  0  0  0  0  0  0
   -6.4965    8.5819    0.0000 C   0  0  0  0  0  0  0  0  0  0  0  0
   -6.4968   10.0819    0.0000 C   0  0  0  0  0  0  0  0  0  0  0  0
   -7.7959   10.8317    0.0000 C   0  0  0  0  0  0  0  0  0  0  0  0
   -7.7962   12.3317    0.0000 C   0  0  0  0  0  0  0  0  0  0  0  0
   -9.0948   10.0815    0.0000 C   0  0  0  0  0  0  0  0  0  0  0  0
   -5.1969    6.3321    0.0000 C   0  0  0  0  0  0  0  0  0  0  0  0
   -3.8966    5.5825    0.0000 C   0  0  0  0  0  0  0  0  0  0  0  0
   -2.5969    6.3329    0.0000 C   0  0  0  0  0  0  0  0  0  0  0  0
   -1.2977    5.5831    0.0000 O   0  0  0  0  0  0  0  0  0  0  0  0
   -6.4956    5.5815    0.0000 O   0  0  0  0  0  0  0  0  0  0  0  0
   -1.2994   10.0835    0.0000 O   0  0  0  0  0  0  0  0  0  0  0  0
    0.9655    6.6856    0.0000 O   0  0  0  0  0  0  0  0  0  0  0  0
  1  2  1  0
  2  3  1  0
  2  4  2  0
  4  5  1  0
  5  6  1  0
  6  7  2  0
  7  8  1  0
  8  9  2  0
  9 10  1  0
 10 11  2  0
  6 11  1  0
 11 12  1  0
  8 13  1  0
 13 14  1  0
 14 15  1  0
 15 16  1  0
 16 17  2  0
 17 18  1  0
 18 19  1  0
 19 20  1  0
 20 21  2  0
 21 22  1  0
 21 23  1  0
 18 24  2  0
 24 25  1  0
 25 26  2  0
 16 26  1  0
 26 27  1  0
 24 28  1  0
 15 29  2  0
 14 30  1  0
M  END
>  <cdk:Title>  (185) 
Kanzonol y

>  <1A2>  (185) 
N

>  <2A6>  (185) 
N

>  <2B6>  (185) 
N

>  <2C8>  (185) 
N

>  <2C9>  (185) 
N

>  <2C19>  (185) 
N

>  <2D6>  (185) 
N

>  <2E1>  (185) 
N

>  <3A4>  (185) 
N

>  <Citation>  (185) 
Nucleic Acids Res. 2018. Jan 4;46(D1):D608-17. PMID:29140435
Nucleic Acids Res. 2018 Jan 4;46(D1):D1074-D1082. PMID:29126136
Nucleic Acids Res., 45:D380-388 (2017).  PMID:27924025
Nucleic Acids Res. 2016 Jan 4;44(D1):D1202-13. PMID:26400175

>  <ROMol>  (185) 
<rdkit.Chem.rdchem.Mol object at 0x7c29061270d0>

>  <Drug_like>  (185) 
True

$$$$
Incadronic acid
     RDKit          2D

 17 17  0  0  0  0  0  0  0  0999 V2000
    4.9365   -0.6895    0.0000 C   0  0  0  0  0  0  0  0  0  0  0  0
    3.9965   -1.8595    0.0000 C   0  0  0  0  0  0  0  0  0  0  0  0
    2.4965   -1.8595    0.0000 C   0  0  0  0  0  0  0  0  0  0  0  0
    1.5565   -0.6895    0.0000 C   0  0  0  0  0  0  0  0  0  0  0  0
    1.8965    0.7805    0.0000 C   0  0  0  0  0  0  0  0  0  0  0  0
    3.2465    1.4305    0.0000 C   0  0  0  0  0  0  0  0  0  0  0  0
    4.5965    0.7805    0.0000 C   0  0  0  0  0  0  0  0  0  0  0  0
    1.3516    3.1794    0.0000 N   0  0  0  0  0  0  0  0  0  0  0  0
   -0.0813    3.6230    0.0000 C   0  0  0  0  0  0  0  0  0  0  0  0
   -0.4136    5.0857    0.0000 P   0  0  0  0  0  0  0  0  0  0  0  0
    1.0846    5.1589    0.0000 O   0  0  0  0  0  0  0  0  0  0  0  0
   -1.8465    5.5293    0.0000 O   0  0  0  0  0  0  0  0  0  0  0  0
   -0.2256    6.5739    0.0000 O   0  0  0  0  0  0  0  0  0  0  0  0
   -1.5795    3.5497    0.0000 P   0  0  0  0  0  0  0  0  0  0  0  0
   -2.9623    2.9685    0.0000 O   0  0  0  0  0  0  0  0  0  0  0  0
   -2.3921    4.8106    0.0000 O   0  0  0  0  0  0  0  0  0  0  0  0
   -1.2472    2.0870    0.0000 O   0  0  0  0  0  0  0  0  0  0  0  0
  1  2  1  0
  2  3  1  0
  3  4  1  0
  4  5  1  0
  5  6  1  0
  6  7  1  0
  1  7  1  0
  5  8  1  0
  8  9  1  0
  9 10  1  0
 10 11  2  0
 10 12  1  0
 10 13  1  0
  9 14  1  0
 14 15  2  0
 14 16  1  0
 14 17  1  0
M  CHG  2  13  -1  17  -1
M  END
>  <cdk:Title>  (186) 
Incadronic acid

>  <1A2>  (186) 
N

>  <2A6>  (186) 
N

>  <2B6>  (186) 
N

>  <2C8>  (186) 
N

>  <2C9>  (186) 
N

>  <2C19>  (186) 
N

>  <2D6>  (186) 
N

>  <2E1>  (186) 
N

>  <3A4>  (186) 
N

>  <Citation>  (186) 
Nucleic Acids Res. 2018. Jan 4;46(D1):D608-17. PMID:29140435
Nucleic Acids Res. 2018 Jan 4;46(D1):D1074-D1082. PMID:29126136
Nucleic Acids Res., 45:D380-388 (2017).  PMID:27924025
Nucleic Acids Res. 2016 Jan 4;44(D1):D1202-13. PMID:26400175

>  <ROMol>  (186) 
<rdkit.Chem.rdchem.Mol object at 0x7c2906127140>

>  <Drug_like>  (186) 
True

$$$$
Gibberellin a75
     RDKit          2D

 27 31  0  0  0  0  0  0  0  0999 V2000
   -1.6147    4.7500    0.0000 O   0  0  0  0  0  0  0  0  0  0  0  0
   -0.1277    4.9468    0.0000 C   0  0  0  0  0  0  0  0  0  0  0  0
    1.8723    4.9468    0.0000 C   0  0  0  0  0  0  0  0  0  0  0  0
    2.8233    3.7868    0.0000 C   0  0  0  0  0  0  0  0  0  0  0  0
    2.1723    6.4468    0.0000 C   0  0  0  0  0  0  0  0  0  0  0  0
    0.8723    5.6968    0.0000 C   0  0  0  0  0  0  0  0  0  0  0  0
   -0.4277    6.4468    0.0000 C   0  0  0  0  0  0  0  0  0  0  0  0
   -1.7077    5.6968    0.0000 C   0  0  0  0  0  0  0  0  0  0  0  0
   -3.0077    6.4468    0.0000 C   0  0  0  0  0  0  0  0  0  0  0  0
   -4.2877    5.6968    0.0000 C   0  0  0  0  0  0  0  0  0  0  0  0
   -4.2778    2.7568    0.0000 C   0  0  0  0  0  0  0  0  0  0  0  0
   -5.5877    6.4468    0.0000 C   0  0  0  0  0  0  0  0  0  0  0  0
   -7.0650    6.7071    0.0000 O   0  0  0  0  0  0  0  0  0  0  0  0
   -5.5877    7.9268    0.0000 C   0  0  0  0  0  0  0  0  0  0  0  0
   -6.1058    9.3345    0.0000 O   0  0  0  0  0  0  0  0  0  0  0  0
   -4.2877    8.6868    0.0000 C   0  0  0  0  0  0  0  0  0  0  0  0
   -3.0077    7.9268    0.0000 C   0  0  0  0  0  0  0  0  0  0  0  0
   -3.0077    9.3968    0.0000 O   0  0  0  0  0  0  0  0  0  0  0  0
   -4.6977    6.9868    0.0000 C   0  0  0  0  0  0  0  0  0  0  0  0
   -6.1804    7.2138    0.0000 O   0  0  0  0  0  0  0  0  0  0  0  0
   -0.4277    7.9268    0.0000 C   0  0  0  0  0  0  0  0  0  0  0  0
    0.8723    8.6868    0.0000 C   0  0  0  0  0  0  0  0  0  0  0  0
    2.1723    7.9268    0.0000 C   0  0  0  0  0  0  0  0  0  0  0  0
   -3.5922    3.4402    0.0000 C   0  0  0  0  0  0  0  0  0  0  0  0
   -2.7454    1.1305    0.0000 O   0  0  0  0  0  0  0  0  0  0  0  0
   -5.0700    3.6972    0.0000 O   0  0  0  0  0  0  0  0  0  0  0  0
    3.6650    6.2990    0.0000 O   0  0  0  0  0  0  0  0  0  0  0  0
  1  2  1  0
  2  3  1  0
  3  4  2  0
  3  5  1  0
  5  6  1  0
  7  6  1  0
  7  2  1  1
  7  8  1  0
  8  9  1  0
  9 10  1  0
 10 11  1  1
 10 12  1  0
 12 13  1  0
 12 14  1  0
 14 15  1  0
 14 16  1  0
 17 16  1  6
  9 17  1  0
 17 18  1  0
 18 19  1  0
 10 19  1  0
 19 20  2  0
 17 21  1  0
  7 21  1  0
 21 22  1  0
 22 23  1  0
  5 23  1  0
  8 24  1  0
 24 25  1  0
 24 26  2  0
  5 27  1  6
M  END
>  <cdk:Title>  (187) 
Gibberellin a75

>  <1A2>  (187) 
N

>  <2A6>  (187) 
N

>  <2B6>  (187) 
N

>  <2C8>  (187) 
N

>  <2C9>  (187) 
N

>  <2C19>  (187) 
N

>  <2D6>  (187) 
N

>  <2E1>  (187) 
N

>  <3A4>  (187) 
N

>  <Citation>  (187) 
Nucleic Acids Res. 2018. Jan 4;46(D1):D608-17. PMID:29140435
Nucleic Acids Res. 2018 Jan 4;46(D1):D1074-D1082. PMID:29126136
Nucleic Acids Res., 45:D380-388 (2017).  PMID:27924025
Nucleic Acids Res. 2016 Jan 4;44(D1):D1202-13. PMID:26400175

>  <ROMol>  (187) 
<rdkit.Chem.rdchem.Mol object at 0x7c29061271b0>

>  <Drug_like>  (187) 
True

$$$$
(2R_3R_4S_5S_6R)-2-{[(1R_4S_5S_8R_9R_12S_16S_19R)-8-[(2R_4E)-6-hydroxy-6-methylh
     RDKit          2D

 46 51  0  0  0  0  0  0  0  0999 V2000
   -5.1431   -0.3914    0.0000 C   0  0  0  0  0  0  0  0  0  0  0  0
   -3.6659   -0.1309    0.0000 C   0  0  0  0  0  0  0  0  0  0  0  0
   -3.1529    1.2786    0.0000 C   0  0  0  0  0  0  0  0  0  0  0  0
   -4.1170    2.4277    0.0000 C   0  0  0  0  0  0  0  0  0  0  0  0
   -5.5943    2.1672    0.0000 C   0  0  0  0  0  0  0  0  0  0  0  0
   -6.1073    0.7577    0.0000 C   0  0  0  0  0  0  0  0  0  0  0  0
   -6.2985    3.4916    0.0000 C   0  0  0  0  0  0  0  0  0  0  0  0
   -6.0454    4.7258    0.0000 C   0  0  0  0  0  0  0  0  0  0  0  0
   -4.5682    4.9863    0.0000 C   0  0  0  0  0  0  0  0  0  0  0  0
   -3.6040    3.8372    0.0000 C   0  0  0  0  0  0  0  0  0  0  0  0
   -7.0096    5.8749    0.0000 C   0  0  0  0  0  0  0  0  0  0  0  0
   -8.4868    5.6144    0.0000 C   0  0  0  0  0  0  0  0  0  0  0  0
   -8.9998    4.2049    0.0000 C   0  0  0  0  0  0  0  0  0  0  0  0
   -8.0356    3.0558    0.0000 C   0  0  0  0  0  0  0  0  0  0  0  0
   -9.1910    6.9388    0.0000 C   0  0  0  0  0  0  0  0  0  0  0  0
   -8.1490    8.0178    0.0000 C   0  0  0  0  0  0  0  0  0  0  0  0
   -6.8008    7.3603    0.0000 C   0  0  0  0  0  0  0  0  0  0  0  0
  -12.1149    7.2461    0.0000 C   0  0  0  0  0  0  0  0  0  0  0  0
  -11.3045   10.0723    0.0000 C   0  0  0  0  0  0  0  0  0  0  0  0
  -13.5609    5.2560    0.0000 C   0  0  0  0  0  0  0  0  0  0  0  0
  -15.0526    5.4128    0.0000 C   0  0  0  0  0  0  0  0  0  0  0  0
  -15.6627    6.7831    0.0000 C   0  0  0  0  0  0  0  0  0  0  0  0
  -17.1545    6.9399    0.0000 C   0  0  0  0  0  0  0  0  0  0  0  0
  -17.7646    8.3102    0.0000 C   0  0  0  0  0  0  0  0  0  0  0  0
  -20.0072    6.2286    0.0000 C   0  0  0  0  0  0  0  0  0  0  0  0
  -17.0499    5.4435    0.0000 O   0  0  0  0  0  0  0  0  0  0  0  0
   -9.9831    5.5098    0.0000 C   0  0  0  0  0  0  0  0  0  0  0  0
   -4.6449    6.5530    0.0000 C   0  0  0  0  0  0  0  0  0  0  0  0
   -5.2565    4.5706    0.0000 C   0  0  0  0  0  0  0  0  0  0  0  0
   -3.9083    3.9131    0.0000 O   0  0  0  0  0  0  0  0  0  0  0  0
   -6.4385    5.4941    0.0000 O   0  0  0  0  0  0  0  0  0  0  0  0
   -6.0293    8.4055    0.0000 C   0  0  0  0  0  0  0  0  0  0  0  0
   -1.2631    3.5308    0.0000 C   0  0  0  0  0  0  0  0  0  0  0  0
   -1.8538    0.5286    0.0000 C   0  0  0  0  0  0  0  0  0  0  0  0
   -1.2433   -0.5581    0.0000 O   0  0  0  0  0  0  0  0  0  0  0  0
   -0.2377   -3.3208    0.0000 C   0  0  0  0  0  0  0  0  0  0  0  0
   -0.2307   -4.8390    0.0000 O   0  0  0  0  0  0  0  0  0  0  0  0
    1.0671   -5.5928    0.0000 C   0  0  0  0  0  0  0  0  0  0  0  0
    2.3591   -4.8508    0.0000 C   0  0  0  0  0  0  0  0  0  0  0  0
    2.3708   -3.3449    0.0000 C   0  0  0  0  0  0  0  0  0  0  0  0
    1.0544   -2.5788    0.0000 C   0  0  0  0  0  0  0  0  0  0  0  0
    2.0221   -1.4327    0.0000 O   0  0  0  0  0  0  0  0  0  0  0  0
    3.8463   -3.6148    0.0000 O   0  0  0  0  0  0  0  0  0  0  0  0
    2.8664   -6.2624    0.0000 O   0  0  0  0  0  0  0  0  0  0  0  0
    0.1000   -6.7394    0.0000 C   0  0  0  0  0  0  0  0  0  0  0  0
    0.6095   -8.1502    0.0000 O   0  0  0  0  0  0  0  0  0  0  0  0
  1  2  1  0
  2  3  1  0
  3  4  1  0
  4  5  1  0
  5  6  1  0
  1  6  1  0
  5  7  1  0
  7  8  1  0
  8  9  1  0
  9 10  2  0
  4 10  1  0
  8 11  1  0
 11 12  1  0
 12 13  1  0
 13 14  1  0
  7 14  1  1
 12 15  1  0
 15 16  1  0
 16 17  1  0
 11 17  1  0
 15 18  1  0
 18 19  1  0
 18 20  1  0
 20 21  1  0
 21 22  2  0
 22 23  1  0
 23 24  1  0
 23 25  1  0
 23 26  1  0
 12 27  1  6
 11 28  1  1
  7 29  1  0
 29 30  1  0
  4 30  1  1
 29 31  1  0
 31 32  1  0
  3 33  1  0
  3 34  1  0
  2 35  1  0
 35 36  1  0
 36 37  1  0
 37 38  1  0
 38 39  1  0
 39 40  1  0
 40 41  1  0
 36 41  1  0
 41 42  1  0
 40 43  1  0
 39 44  1  0
 38 45  1  0
 45 46  1  0
M  END
>  <cdk:Title>  (188) 
(2R_3R_4S_5S_6R)-2-{[(1R_4S_5S_8R_9R_12S_16S_19R)-8-[(2R_4E)-6-hydroxy-6-methylhept-4-en-2-yl]-19-methoxy-5_9_17_17-tetramethyl-18-oxapentacyclo[10.5.2.0??_????.0???_????.0???_???]nonadec-2-en-16-yl]oxy}-6-(hydroxymethyl)oxane-3_4_5-triol

>  <1A2>  (188) 
N

>  <2A6>  (188) 
N

>  <2B6>  (188) 
N

>  <2C8>  (188) 
N

>  <2C9>  (188) 
N

>  <2C19>  (188) 
N

>  <2D6>  (188) 
N

>  <2E1>  (188) 
N

>  <3A4>  (188) 
N

>  <Citation>  (188) 
Nucleic Acids Res. 2018. Jan 4;46(D1):D608-17. PMID:29140435
Nucleic Acids Res. 2018 Jan 4;46(D1):D1074-D1082. PMID:29126136
Nucleic Acids Res., 45:D380-388 (2017).  PMID:27924025
Nucleic Acids Res. 2016 Jan 4;44(D1):D1202-13. PMID:26400175

>  <ROMol>  (188) 
<rdkit.Chem.rdchem.Mol object at 0x7c2906127220>

>  <Drug_like>  (188) 
True

$$$$
Cervonyl carnitine
     RDKit          2D

 34 33  0  0  0  0  0  0  0  0999 V2000
   36.3174    3.9307    0.0000 C   0  0  0  0  0  0  0  0  0  0  0  0
   35.8043    2.5211    0.0000 C   0  0  0  0  0  0  0  0  0  0  0  0
   37.3856    0.6366    0.0000 C   0  0  0  0  0  0  0  0  0  0  0  0
   38.6846   -0.1134    0.0000 O   0  0  0  0  0  0  0  0  0  0  0  0
   39.9837    0.6366    0.0000 C   0  0  0  0  0  0  0  0  0  0  0  0
   39.9837    2.1366    0.0000 O   0  0  0  0  0  0  0  0  0  0  0  0
   41.2827   -0.1134    0.0000 C   0  0  0  0  0  0  0  0  0  0  0  0
   42.5818    0.6366    0.0000 C   0  0  0  0  0  0  0  0  0  0  0  0
   43.8808   -0.1134    0.0000 C   0  0  0  0  0  0  0  0  0  0  0  0
   45.1798    0.6366    0.0000 C   0  0  0  0  0  0  0  0  0  0  0  0
   46.4789   -0.1134    0.0000 C   0  0  0  0  0  0  0  0  0  0  0  0
   47.7779    0.6366    0.0000 C   0  0  0  0  0  0  0  0  0  0  0  0
   49.0770   -0.1134    0.0000 C   0  0  0  0  0  0  0  0  0  0  0  0
   50.3760    0.6366    0.0000 C   0  0  0  0  0  0  0  0  0  0  0  0
   51.6750   -0.1134    0.0000 C   0  0  0  0  0  0  0  0  0  0  0  0
   52.9741    0.6366    0.0000 C   0  0  0  0  0  0  0  0  0  0  0  0
   54.2731   -0.1134    0.0000 C   0  0  0  0  0  0  0  0  0  0  0  0
   55.5721    0.6366    0.0000 C   0  0  0  0  0  0  0  0  0  0  0  0
   56.8712   -0.1134    0.0000 C   0  0  0  0  0  0  0  0  0  0  0  0
   58.1702    0.6366    0.0000 C   0  0  0  0  0  0  0  0  0  0  0  0
   59.4693   -0.1134    0.0000 C   0  0  0  0  0  0  0  0  0  0  0  0
   60.7683    0.6366    0.0000 C   0  0  0  0  0  0  0  0  0  0  0  0
   62.0673   -0.1134    0.0000 C   0  0  0  0  0  0  0  0  0  0  0  0
   63.3664    0.6366    0.0000 C   0  0  0  0  0  0  0  0  0  0  0  0
   64.6654   -0.1134    0.0000 C   0  0  0  0  0  0  0  0  0  0  0  0
   65.9644    0.6366    0.0000 C   0  0  0  0  0  0  0  0  0  0  0  0
   67.2635   -0.1134    0.0000 C   0  0  0  0  0  0  0  0  0  0  0  0
   34.8395   -0.8334    0.0000 C   0  0  0  0  0  0  0  0  0  0  0  0
   34.8395   -2.3334    0.0000 N   0  0  0  0  0  0  0  0  0  0  0  0
   36.1385   -3.0834    0.0000 C   0  0  0  0  0  0  0  0  0  0  0  0
   33.9981   -4.6450    0.0000 C   0  0  0  0  0  0  0  0  0  0  0  0
   31.9442   -1.8228    0.0000 C   0  0  0  0  0  0  0  0  0  0  0  0
   35.3532    5.0797    0.0000 O   0  0  0  0  0  0  0  0  0  0  0  0
   37.7946    4.1911    0.0000 O   0  0  0  0  0  0  0  0  0  0  0  0
  1  2  1  0
  2  3  1  0
  3  4  1  0
  4  5  1  0
  5  6  2  0
  5  7  1  0
  7  8  1  0
  8  9  1  0
  9 10  2  0
 10 11  1  0
 11 12  1  0
 12 13  2  0
 13 14  1  0
 14 15  1  0
 15 16  2  0
 16 17  1  0
 17 18  1  0
 18 19  2  0
 19 20  1  0
 20 21  1  0
 21 22  2  0
 22 23  1  0
 23 24  1  0
 24 25  2  0
 25 26  1  0
 26 27  1  0
  3 28  1  0
 28 29  1  0
 29 30  1  0
 29 31  1  0
 29 32  1  0
  1 33  1  0
  1 34  2  0
M  CHG  2  29   1  33  -1
M  END
>  <cdk:Title>  (189) 
Cervonyl carnitine

>  <1A2>  (189) 
N

>  <2A6>  (189) 
N

>  <2B6>  (189) 
N

>  <2C8>  (189) 
N

>  <2C9>  (189) 
N

>  <2C19>  (189) 
N

>  <2D6>  (189) 
N

>  <2E1>  (189) 
N

>  <3A4>  (189) 
N

>  <Citation>  (189) 
Nucleic Acids Res. 2018. Jan 4;46(D1):D608-17. PMID:29140435
Nucleic Acids Res. 2018 Jan 4;46(D1):D1074-D1082. PMID:29126136
Nucleic Acids Res., 45:D380-388 (2017).  PMID:27924025
Nucleic Acids Res. 2016 Jan 4;44(D1):D1202-13. PMID:26400175

>  <ROMol>  (189) 
<rdkit.Chem.rdchem.Mol object at 0x7c2906127290>

>  <Drug_like>  (189) 
True

$$$$
15H-11_12-EETA
     RDKit          2D

 24 24  0  0  0  0  0  0  0  0999 V2000
   11.8147    1.4941    0.0000 O   0  0  0  0  0  0  0  0  0  0  0  0
   10.8501    0.3443    0.0000 C   0  0  0  0  0  0  0  0  0  0  0  0
   10.3365    1.7536    0.0000 C   0  0  0  0  0  0  0  0  0  0  0  0
    8.8594    1.4923    0.0000 C   0  0  0  0  0  0  0  0  0  0  0  0
    7.8946    2.6409    0.0000 C   0  0  0  0  0  0  0  0  0  0  0  0
    6.4175    2.3796    0.0000 C   0  0  0  0  0  0  0  0  0  0  0  0
    6.9313    0.9704    0.0000 O   0  0  0  0  0  0  0  0  0  0  0  0
    5.4527    3.5282    0.0000 C   0  0  0  0  0  0  0  0  0  0  0  0
    3.0303    3.0997    0.0000 C   0  0  0  0  0  0  0  0  0  0  0  0
    1.7568    4.6158    0.0000 C   0  0  0  0  0  0  0  0  0  0  0  0
    0.2797    4.3545    0.0000 C   0  0  0  0  0  0  0  0  0  0  0  0
   -0.6851    5.5031    0.0000 C   0  0  0  0  0  0  0  0  0  0  0  0
   11.8145   -0.8046    0.0000 C   0  0  0  0  0  0  0  0  0  0  0  0
   13.7644   -0.4603    0.0000 C   0  0  0  0  0  0  0  0  0  0  0  0
   14.2771    0.9493    0.0000 C   0  0  0  0  0  0  0  0  0  0  0  0
   13.3127    2.0982    0.0000 C   0  0  0  0  0  0  0  0  0  0  0  0
   13.8254    3.5078    0.0000 C   0  0  0  0  0  0  0  0  0  0  0  0
   15.3026    3.7686    0.0000 C   0  0  0  0  0  0  0  0  0  0  0  0
   16.2670    2.6197    0.0000 C   0  0  0  0  0  0  0  0  0  0  0  0
   17.7441    2.8805    0.0000 C   0  0  0  0  0  0  0  0  0  0  0  0
   18.2569    4.2902    0.0000 C   0  0  0  0  0  0  0  0  0  0  0  0
   19.7340    4.5510    0.0000 C   0  0  0  0  0  0  0  0  0  0  0  0
   20.2468    5.9606    0.0000 O   0  0  0  0  0  0  0  0  0  0  0  0
   20.6985    3.4021    0.0000 O   0  0  0  0  0  0  0  0  0  0  0  0
  1  2  1  0
  2  3  1  0
  1  3  1  0
  3  4  1  0
  4  5  2  0
  5  6  1  0
  6  7  1  0
  6  8  1  0
  8  9  1  0
  9 10  1  0
 10 11  1  0
 11 12  1  0
  2 13  1  0
 13 14  1  0
 14 15  2  0
 15 16  1  0
 16 17  1  0
 17 18  2  0
 18 19  1  0
 19 20  1  0
 20 21  1  0
 21 22  1  0
 22 23  1  0
 22 24  2  0
M  END
>  <cdk:Title>  (190) 
15H-11_12-EETA

>  <1A2>  (190) 
N

>  <2A6>  (190) 
N

>  <2B6>  (190) 
N

>  <2C8>  (190) 
N

>  <2C9>  (190) 
N

>  <2C19>  (190) 
N

>  <2D6>  (190) 
N

>  <2E1>  (190) 
N

>  <3A4>  (190) 
N

>  <Citation>  (190) 
Nucleic Acids Res. 2018. Jan 4;46(D1):D608-17. PMID:29140435
Nucleic Acids Res. 2018 Jan 4;46(D1):D1074-D1082. PMID:29126136
Nucleic Acids Res., 45:D380-388 (2017).  PMID:27924025
Nucleic Acids Res. 2016 Jan 4;44(D1):D1202-13. PMID:26400175

>  <ROMol>  (190) 
<rdkit.Chem.rdchem.Mol object at 0x7c2906127300>

>  <Drug_like>  (190) 
True

$$$$
D8-Isopimaric acid
     RDKit          2D

 22 24  0  0  0  0  0  0  0  0999 V2000
    4.1385    2.3143    0.0000 C   0  0  0  0  0  0  0  0  0  0  0  0
    3.1745    1.1652    0.0000 C   0  0  0  0  0  0  0  0  0  0  0  0
    0.7518    1.5921    0.0000 C   0  0  0  0  0  0  0  0  0  0  0  0
    1.7567    4.3550    0.0000 C   0  0  0  0  0  0  0  0  0  0  0  0
   -0.5482    2.3421    0.0000 C   0  0  0  0  0  0  0  0  0  0  0  0
   -1.8482    1.5921    0.0000 C   0  0  0  0  0  0  0  0  0  0  0  0
   -1.8482    0.0921    0.0000 C   0  0  0  0  0  0  0  0  0  0  0  0
   -0.5482   -0.6579    0.0000 C   0  0  0  0  0  0  0  0  0  0  0  0
   -0.5482   -2.1579    0.0000 C   0  0  0  0  0  0  0  0  0  0  0  0
   -1.8482   -2.9079    0.0000 C   0  0  0  0  0  0  0  0  0  0  0  0
   -3.1482   -2.1579    0.0000 C   0  0  0  0  0  0  0  0  0  0  0  0
   -3.1482   -0.6579    0.0000 C   0  0  0  0  0  0  0  0  0  0  0  0
   -3.1482    2.2821    0.0000 C   0  0  0  0  0  0  0  0  0  0  0  0
   -4.4482    0.0921    0.0000 C   0  0  0  0  0  0  0  0  0  0  0  0
   -5.7482   -0.6579    0.0000 C   0  0  0  0  0  0  0  0  0  0  0  0
   -5.7482   -2.1579    0.0000 C   0  0  0  0  0  0  0  0  0  0  0  0
   -4.4482   -2.9079    0.0000 C   0  0  0  0  0  0  0  0  0  0  0  0
   -6.3378   -5.1603    0.0000 C   0  0  0  0  0  0  0  0  0  0  0  0
   -3.2184   -5.0385    0.0000 C   0  0  0  0  0  0  0  0  0  0  0  0
   -1.7184   -5.0386    0.0000 O   0  0  0  0  0  0  0  0  0  0  0  0
   -3.9686   -6.3374    0.0000 O   0  0  0  0  0  0  0  0  0  0  0  0
    0.7518    0.0921    0.0000 C   0  0  0  0  0  0  0  0  0  0  0  0
  1  2  2  0
  3  2  1  0
  3  4  1  1
  3  5  1  0
  5  6  1  0
  6  7  1  0
  7  8  2  0
  8  9  1  0
  9 10  1  0
 10 11  1  0
 11 12  1  0
  7 12  1  0
 12 13  1  6
 12 14  1  0
 14 15  1  0
 15 16  1  0
 16 17  1  0
 11 17  1  0
 17 18  1  6
 17 19  1  0
 19 20  2  0
 19 21  1  0
  8 22  1  0
  3 22  1  0
M  END
>  <cdk:Title>  (191) 
D8-Isopimaric acid

>  <1A2>  (191) 
N

>  <2A6>  (191) 
N

>  <2B6>  (191) 
N

>  <2C8>  (191) 
N

>  <2C9>  (191) 
N

>  <2C19>  (191) 
N

>  <2D6>  (191) 
N

>  <2E1>  (191) 
N

>  <3A4>  (191) 
N

>  <Citation>  (191) 
Nucleic Acids Res. 2018. Jan 4;46(D1):D608-17. PMID:29140435
Nucleic Acids Res. 2018 Jan 4;46(D1):D1074-D1082. PMID:29126136
Nucleic Acids Res., 45:D380-388 (2017).  PMID:27924025
Nucleic Acids Res. 2016 Jan 4;44(D1):D1202-13. PMID:26400175

>  <ROMol>  (191) 
<rdkit.Chem.rdchem.Mol object at 0x7c29061274c0>

>  <Drug_like>  (191) 
True

$$$$
9-Hydroxyicosa-5_7_11_14-tetraenoic acid
     RDKit          2D

 23 22  0  0  0  0  0  0  0  0999 V2000
   20.3926   -1.7882    0.0000 C   0  0  0  0  0  0  0  0  0  0  0  0
   21.6917   -1.0382    0.0000 C   0  0  0  0  0  0  0  0  0  0  0  0
   22.9907   -1.7882    0.0000 C   0  0  0  0  0  0  0  0  0  0  0  0
   22.9907   -3.2882    0.0000 C   0  0  0  0  0  0  0  0  0  0  0  0
   24.2897   -4.0382    0.0000 C   0  0  0  0  0  0  0  0  0  0  0  0
   24.2897   -5.5382    0.0000 C   0  0  0  0  0  0  0  0  0  0  0  0
   25.5888   -6.2882    0.0000 C   0  0  0  0  0  0  0  0  0  0  0  0
   26.8878   -5.5382    0.0000 C   0  0  0  0  0  0  0  0  0  0  0  0
   28.1869   -6.2882    0.0000 C   0  0  0  0  0  0  0  0  0  0  0  0
   29.4859   -5.5382    0.0000 C   0  0  0  0  0  0  0  0  0  0  0  0
   31.2006   -6.5282    0.0000 C   0  0  0  0  0  0  0  0  0  0  0  0
   32.4997   -5.7782    0.0000 C   0  0  0  0  0  0  0  0  0  0  0  0
   33.7987   -6.5282    0.0000 C   0  0  0  0  0  0  0  0  0  0  0  0
   35.0977   -5.7782    0.0000 O   0  0  0  0  0  0  0  0  0  0  0  0
   33.7987   -8.0282    0.0000 O   0  0  0  0  0  0  0  0  0  0  0  0
   24.8028   -2.6286    0.0000 O   0  0  0  0  0  0  0  0  0  0  0  0
   20.1322   -3.2654    0.0000 C   0  0  0  0  0  0  0  0  0  0  0  0
   18.7226   -3.7784    0.0000 C   0  0  0  0  0  0  0  0  0  0  0  0
   16.4704   -1.8886    0.0000 C   0  0  0  0  0  0  0  0  0  0  0  0
   16.8143    0.0613    0.0000 C   0  0  0  0  0  0  0  0  0  0  0  0
   15.2975    1.3340    0.0000 C   0  0  0  0  0  0  0  0  0  0  0  0
   15.5580    2.8112    0.0000 C   0  0  0  0  0  0  0  0  0  0  0  0
   14.4089    3.7754    0.0000 C   0  0  0  0  0  0  0  0  0  0  0  0
  1  2  1  0
  2  3  2  0
  3  4  1  0
  4  5  1  0
  5  6  1  0
  6  7  2  0
  7  8  1  0
  8  9  2  0
  9 10  1  0
 10 11  1  0
 11 12  1  0
 12 13  1  0
 13 14  1  0
 13 15  2  0
  5 16  1  0
  1 17  1  0
 17 18  2  0
 18 19  1  0
 19 20  1  0
 20 21  1  0
 21 22  1  0
 22 23  1  0
M  END
>  <cdk:Title>  (192) 
9-Hydroxyicosa-5_7_11_14-tetraenoic acid

>  <1A2>  (192) 
N

>  <2A6>  (192) 
N

>  <2B6>  (192) 
N

>  <2C8>  (192) 
N

>  <2C9>  (192) 
N

>  <2C19>  (192) 
N

>  <2D6>  (192) 
N

>  <2E1>  (192) 
N

>  <3A4>  (192) 
N

>  <Citation>  (192) 
Nucleic Acids Res. 2018. Jan 4;46(D1):D608-17. PMID:29140435
Nucleic Acids Res. 2018 Jan 4;46(D1):D1074-D1082. PMID:29126136
Nucleic Acids Res., 45:D380-388 (2017).  PMID:27924025
Nucleic Acids Res. 2016 Jan 4;44(D1):D1202-13. PMID:26400175

>  <ROMol>  (192) 
<rdkit.Chem.rdchem.Mol object at 0x7c2906127530>

>  <Drug_like>  (192) 
True

$$$$
Oryzalic acid a
     RDKit          2D

 25 28  0  0  0  0  0  0  0  0999 V2000
    3.5031    3.2049    0.0000 C   0  0  0  0  0  0  0  0  0  0  0  0
    1.7750    0.8264    0.0000 C   0  0  0  0  0  0  0  0  0  0  0  0
    4.4175   -0.4624    0.0000 C   0  0  0  0  0  0  0  0  0  0  0  0
    0.3996    2.2507    0.0000 C   0  0  0  0  0  0  0  0  0  0  0  0
   -0.2105    3.6210    0.0000 C   0  0  0  0  0  0  0  0  0  0  0  0
   -1.7023    3.7778    0.0000 C   0  0  0  0  0  0  0  0  0  0  0  0
   -2.5840    2.5643    0.0000 C   0  0  0  0  0  0  0  0  0  0  0  0
   -3.5877    1.4496    0.0000 C   0  0  0  0  0  0  0  0  0  0  0  0
   -4.9580    2.0597    0.0000 C   0  0  0  0  0  0  0  0  0  0  0  0
   -4.7094   -0.1708    0.0000 C   0  0  0  0  0  0  0  0  0  0  0  0
   -3.0861   -0.9099    0.0000 C   0  0  0  0  0  0  0  0  0  0  0  0
   -1.9739    1.1940    0.0000 C   0  0  0  0  0  0  0  0  0  0  0  0
   -0.4821    1.0372    0.0000 C   0  0  0  0  0  0  0  0  0  0  0  0
   -1.1601   -1.3275    0.0000 C   0  0  0  0  0  0  0  0  0  0  0  0
    1.7290   -0.0412    0.0000 C   0  0  0  0  0  0  0  0  0  0  0  0
    1.8336   -1.5375    0.0000 C   0  0  0  0  0  0  0  0  0  0  0  0
    0.5900   -2.3763    0.0000 O   0  0  0  0  0  0  0  0  0  0  0  0
    3.1818   -2.1951    0.0000 O   0  0  0  0  0  0  0  0  0  0  0  0
   -4.8012    3.5515    0.0000 C   0  0  0  0  0  0  0  0  0  0  0  0
   -6.2684    3.8634    0.0000 C   0  0  0  0  0  0  0  0  0  0  0  0
   -3.3340    3.8634    0.0000 C   0  0  0  0  0  0  0  0  0  0  0  0
   -4.3377    4.9781    0.0000 O   0  0  0  0  0  0  0  0  0  0  0  0
    1.0970   -1.5383    0.0000 C   0  0  0  0  0  0  0  0  0  0  0  0
   -0.3585   -1.9011    0.0000 O   0  0  0  0  0  0  0  0  0  0  0  0
    2.1390   -2.6173    0.0000 O   0  0  0  0  0  0  0  0  0  0  0  0
  1  2  1  0
  2  3  1  0
  2  4  1  0
  4  5  1  0
  5  6  1  0
  7  6  1  6
  7  8  1  0
  8  9  1  0
  9 10  1  0
 10 11  1  0
 11 12  1  0
  7 12  1  0
 12 13  1  0
  4 13  1  0
 13 14  1  6
 13 15  1  0
 15 16  1  0
 16 17  2  0
 16 18  1  0
  9 19  1  0
 19 20  1  1
 19 21  1  0
  7 21  1  0
 21 22  1  0
 19 22  1  0
  2 23  1  0
 23 24  2  0
 23 25  1  0
M  END
>  <cdk:Title>  (193) 
Oryzalic acid a

>  <1A2>  (193) 
N

>  <2A6>  (193) 
N

>  <2B6>  (193) 
N

>  <2C8>  (193) 
N

>  <2C9>  (193) 
N

>  <2C19>  (193) 
N

>  <2D6>  (193) 
N

>  <2E1>  (193) 
N

>  <3A4>  (193) 
N

>  <Citation>  (193) 
Nucleic Acids Res. 2018. Jan 4;46(D1):D608-17. PMID:29140435
Nucleic Acids Res. 2018 Jan 4;46(D1):D1074-D1082. PMID:29126136
Nucleic Acids Res., 45:D380-388 (2017).  PMID:27924025
Nucleic Acids Res. 2016 Jan 4;44(D1):D1202-13. PMID:26400175

>  <ROMol>  (193) 
<rdkit.Chem.rdchem.Mol object at 0x7c2906127680>

>  <Drug_like>  (193) 
True

$$$$
(+)-Kolavelool
     RDKit          2D

 21 22  0  0  0  0  0  0  0  0999 V2000
    1.7850    7.4736    0.0000 C   0  0  0  0  0  0  0  0  0  0  0  0
    0.4861    6.7235    0.0000 C   0  0  0  0  0  0  0  0  0  0  0  0
    0.4862    5.2235    0.0000 C   0  0  0  0  0  0  0  0  0  0  0  0
    1.4921    2.4609    0.0000 C   0  0  0  0  0  0  0  0  0  0  0  0
   -0.8127    4.4734    0.0000 C   0  0  0  0  0  0  0  0  0  0  0  0
   -3.3590    5.9431    0.0000 C   0  0  0  0  0  0  0  0  0  0  0  0
   -5.9050    4.4728    0.0000 C   0  0  0  0  0  0  0  0  0  0  0  0
   -3.7741    3.2435    0.0000 C   0  0  0  0  0  0  0  0  0  0  0  0
   -6.4175    3.0622    0.0000 C   0  0  0  0  0  0  0  0  0  0  0  0
   -4.9464    0.5167    0.0000 C   0  0  0  0  0  0  0  0  0  0  0  0
   -7.8947    2.8014    0.0000 C   0  0  0  0  0  0  0  0  0  0  0  0
   -8.8593    3.9512    0.0000 C   0  0  0  0  0  0  0  0  0  0  0  0
   -8.3467    5.3618    0.0000 C   0  0  0  0  0  0  0  0  0  0  0  0
  -11.2419    4.8507    0.0000 C   0  0  0  0  0  0  0  0  0  0  0  0
   -9.3113    6.5116    0.0000 C   0  0  0  0  0  0  0  0  0  0  0  0
  -12.2067    7.0215    0.0000 C   0  0  0  0  0  0  0  0  0  0  0  0
   -8.7987    7.9222    0.0000 C   0  0  0  0  0  0  0  0  0  0  0  0
   -7.3216    8.1830    0.0000 C   0  0  0  0  0  0  0  0  0  0  0  0
   -6.3570    7.0332    0.0000 C   0  0  0  0  0  0  0  0  0  0  0  0
   -6.8695    5.6226    0.0000 C   0  0  0  0  0  0  0  0  0  0  0  0
    1.9634    5.4841    0.0000 O   0  0  0  0  0  0  0  0  0  0  0  0
  1  2  2  0
  2  3  1  0
  3  4  1  1
  3  5  1  0
  5  6  1  0
  7  6  1  0
  7  8  1  1
  7  9  1  0
  9 10  1  0
  9 11  1  0
 11 12  1  0
 12 13  1  0
 13 14  1  1
 13 15  1  0
 15 16  1  0
 15 17  2  0
 17 18  1  0
 18 19  1  0
 19 20  1  0
 13 20  1  0
  7 20  1  0
  3 21  1  0
M  END
>  <cdk:Title>  (194) 
(+)-Kolavelool

>  <1A2>  (194) 
N

>  <2A6>  (194) 
N

>  <2B6>  (194) 
N

>  <2C8>  (194) 
N

>  <2C9>  (194) 
N

>  <2C19>  (194) 
N

>  <2D6>  (194) 
N

>  <2E1>  (194) 
N

>  <3A4>  (194) 
N

>  <Citation>  (194) 
Nucleic Acids Res. 2018. Jan 4;46(D1):D608-17. PMID:29140435
Nucleic Acids Res. 2018 Jan 4;46(D1):D1074-D1082. PMID:29126136
Nucleic Acids Res., 45:D380-388 (2017).  PMID:27924025
Nucleic Acids Res. 2016 Jan 4;44(D1):D1202-13. PMID:26400175

>  <ROMol>  (194) 
<rdkit.Chem.rdchem.Mol object at 0x7c2906127760>

>  <Drug_like>  (194) 
True

$$$$
Gibberellin a74
     RDKit          2D

 26 29  0  0  0  0  0  0  0  0999 V2000
    3.6141    1.1003    0.0000 C   0  0  0  0  0  0  0  0  0  0  0  0
    2.1680    1.4988    0.0000 C   0  0  0  0  0  0  0  0  0  0  0  0
    1.1780    0.3688    0.0000 C   0  0  0  0  0  0  0  0  0  0  0  0
   -0.3120    0.4388    0.0000 C   0  0  0  0  0  0  0  0  0  0  0  0
    0.1880    2.2788    0.0000 C   0  0  0  0  0  0  0  0  0  0  0  0
    1.8980    2.9688    0.0000 C   0  0  0  0  0  0  0  0  0  0  0  0
    0.5780    3.6888    0.0000 C   0  0  0  0  0  0  0  0  0  0  0  0
   -0.8020    3.0988    0.0000 C   0  0  0  0  0  0  0  0  0  0  0  0
   -1.2020    1.6488    0.0000 C   0  0  0  0  0  0  0  0  0  0  0  0
   -2.6220    1.1888    0.0000 C   0  0  0  0  0  0  0  0  0  0  0  0
   -2.3138    4.1126    0.0000 C   0  0  0  0  0  0  0  0  0  0  0  0
   -3.9220    1.9388    0.0000 C   0  0  0  0  0  0  0  0  0  0  0  0
   -5.2220    1.1888    0.0000 C   0  0  0  0  0  0  0  0  0  0  0  0
   -5.2220   -0.3112    0.0000 C   0  0  0  0  0  0  0  0  0  0  0  0
   -3.9220   -1.0612    0.0000 C   0  0  0  0  0  0  0  0  0  0  0  0
   -5.8115   -3.3136    0.0000 C   0  0  0  0  0  0  0  0  0  0  0  0
   -2.6220   -0.3112    0.0000 C   0  0  0  0  0  0  0  0  0  0  0  0
   -1.2020   -0.7812    0.0000 C   0  0  0  0  0  0  0  0  0  0  0  0
   -2.0151   -2.5865    0.0000 C   0  0  0  0  0  0  0  0  0  0  0  0
   -3.5075   -2.7369    0.0000 O   0  0  0  0  0  0  0  0  0  0  0  0
   -0.2972   -4.9725    0.0000 O   0  0  0  0  0  0  0  0  0  0  0  0
   -2.9167   -3.8240    0.0000 C   0  0  0  0  0  0  0  0  0  0  0  0
   -1.4395   -4.0846    0.0000 O   0  0  0  0  0  0  0  0  0  0  0  0
   -4.4982   -5.7083    0.0000 O   0  0  0  0  0  0  0  0  0  0  0  0
   -6.6992   -0.0509    0.0000 O   0  0  0  0  0  0  0  0  0  0  0  0
    1.5692    4.8147    0.0000 O   0  0  0  0  0  0  0  0  0  0  0  0
  1  2  2  0
  2  3  1  0
  4  3  1  1
  4  5  1  0
  5  6  1  0
  2  6  1  0
  6  7  1  0
  7  8  1  0
  8  9  1  0
  4  9  1  0
  9 10  1  0
 10 11  1  6
 10 12  1  0
 12 13  1  0
 13 14  1  0
 14 15  1  0
 15 16  1  1
 15 17  1  0
 10 17  1  0
 17 18  1  0
  4 18  1  0
 18 19  1  0
 19 20  2  0
 19 21  1  0
 15 22  1  0
 22 23  2  0
 22 24  1  0
 14 25  1  0
  7 26  1  0
M  END
>  <cdk:Title>  (195) 
Gibberellin a74

>  <1A2>  (195) 
N

>  <2A6>  (195) 
N

>  <2B6>  (195) 
N

>  <2C8>  (195) 
N

>  <2C9>  (195) 
N

>  <2C19>  (195) 
N

>  <2D6>  (195) 
N

>  <2E1>  (195) 
N

>  <3A4>  (195) 
N

>  <Citation>  (195) 
Nucleic Acids Res. 2018. Jan 4;46(D1):D608-17. PMID:29140435
Nucleic Acids Res. 2018 Jan 4;46(D1):D1074-D1082. PMID:29126136
Nucleic Acids Res., 45:D380-388 (2017).  PMID:27924025
Nucleic Acids Res. 2016 Jan 4;44(D1):D1202-13. PMID:26400175

>  <ROMol>  (195) 
<rdkit.Chem.rdchem.Mol object at 0x7c2906127840>

>  <Drug_like>  (195) 
True

$$$$
Lucidal
     RDKit          2D

 33 36  0  0  0  0  0  0  0  0999 V2000
   -3.4955   -2.7353    0.0000 C   0  0  0  0  0  0  0  0  0  0  0  0
   -2.1955   -3.4853    0.0000 C   0  0  0  0  0  0  0  0  0  0  0  0
   -0.8955   -2.7353    0.0000 C   0  0  0  0  0  0  0  0  0  0  0  0
    0.4034   -3.4855    0.0000 O   0  0  0  0  0  0  0  0  0  0  0  0
   -0.8955   -1.2353    0.0000 C   0  0  0  0  0  0  0  0  0  0  0  0
   -2.1955   -0.4853    0.0000 C   0  0  0  0  0  0  0  0  0  0  0  0
   -2.1955    1.0147    0.0000 C   0  0  0  0  0  0  0  0  0  0  0  0
   -0.8955    1.7647    0.0000 C   0  0  0  0  0  0  0  0  0  0  0  0
    0.4045    1.0147    0.0000 C   0  0  0  0  0  0  0  0  0  0  0  0
    1.8345    1.4747    0.0000 C   0  0  0  0  0  0  0  0  0  0  0  0
    2.7145    0.2647    0.0000 C   0  0  0  0  0  0  0  0  0  0  0  0
    1.8345   -0.9453    0.0000 C   0  0  0  0  0  0  0  0  0  0  0  0
    0.4045   -0.4853    0.0000 C   0  0  0  0  0  0  0  0  0  0  0  0
    0.6141   -2.4542    0.0000 C   0  0  0  0  0  0  0  0  0  0  0  0
    4.3816    2.9430    0.0000 C   0  0  0  0  0  0  0  0  0  0  0  0
    3.4182    4.0928    0.0000 C   0  0  0  0  0  0  0  0  0  0  0  0
    6.0957    1.9519    0.0000 C   0  0  0  0  0  0  0  0  0  0  0  0
    7.3952    2.7011    0.0000 C   0  0  0  0  0  0  0  0  0  0  0  0
    8.6938    1.9502    0.0000 C   0  0  0  0  0  0  0  0  0  0  0  0
    9.9933    2.6993    0.0000 C   0  0  0  0  0  0  0  0  0  0  0  0
    9.9943    4.1993    0.0000 C   0  0  0  0  0  0  0  0  0  0  0  0
   11.2918    1.9485    0.0000 C   0  0  0  0  0  0  0  0  0  0  0  0
   12.5914    2.6976    0.0000 O   0  0  0  0  0  0  0  0  0  0  0  0
    0.6649    3.4609    0.0000 C   0  0  0  0  0  0  0  0  0  0  0  0
   -3.4955   -1.2353    0.0000 C   0  0  0  0  0  0  0  0  0  0  0  0
   -3.4955    1.7047    0.0000 C   0  0  0  0  0  0  0  0  0  0  0  0
   -4.7955   -0.4853    0.0000 C   0  0  0  0  0  0  0  0  0  0  0  0
   -6.0955   -1.2353    0.0000 C   0  0  0  0  0  0  0  0  0  0  0  0
   -6.0955   -2.7353    0.0000 C   0  0  0  0  0  0  0  0  0  0  0  0
   -7.5727   -2.4750    0.0000 O   0  0  0  0  0  0  0  0  0  0  0  0
   -4.7955   -3.4853    0.0000 C   0  0  0  0  0  0  0  0  0  0  0  0
   -6.3765   -5.3699    0.0000 C   0  0  0  0  0  0  0  0  0  0  0  0
   -3.2144   -5.3699    0.0000 C   0  0  0  0  0  0  0  0  0  0  0  0
  1  2  1  0
  2  3  1  0
  3  4  2  0
  3  5  1  0
  5  6  2  0
  6  7  1  0
  7  8  1  0
  8  9  1  0
  9 10  1  0
 10 11  1  0
 11 12  1  0
 12 13  1  0
  9 13  1  0
  5 13  1  0
 13 14  1  6
 10 15  1  0
 15 16  1  0
 15 17  1  0
 17 18  1  0
 18 19  1  0
 19 20  2  0
 20 21  1  0
 20 22  1  0
 22 23  2  0
  9 24  1  6
  6 25  1  0
  1 25  1  0
 25 26  1  1
 25 27  1  0
 27 28  1  0
 28 29  1  0
 29 30  1  0
 29 31  1  0
  1 31  1  0
 31 32  1  0
 31 33  1  0
M  END
>  <cdk:Title>  (196) 
Lucidal

>  <1A2>  (196) 
N

>  <2A6>  (196) 
N

>  <2B6>  (196) 
N

>  <2C8>  (196) 
N

>  <2C9>  (196) 
N

>  <2C19>  (196) 
N

>  <2D6>  (196) 
N

>  <2E1>  (196) 
N

>  <3A4>  (196) 
N

>  <Citation>  (196) 
Nucleic Acids Res. 2018. Jan 4;46(D1):D608-17. PMID:29140435
Nucleic Acids Res. 2018 Jan 4;46(D1):D1074-D1082. PMID:29126136
Nucleic Acids Res., 45:D380-388 (2017).  PMID:27924025
Nucleic Acids Res. 2016 Jan 4;44(D1):D1202-13. PMID:26400175

>  <ROMol>  (196) 
<rdkit.Chem.rdchem.Mol object at 0x7c29061278b0>

>  <Drug_like>  (196) 
True

$$$$
(4S_4AS_5R_6S_8ar_9ar)-6-hydroxy-9a-methoxy-3_4a_5-trimethyl-2-oxo-2H_4H_4ah_5H_
     RDKit          2D

 27 29  0  0  0  0  0  0  0  0999 V2000
   -2.1237   -4.9467    0.0000 C   0  0  0  0  0  0  0  0  0  0  0  0
   -0.8201   -4.2045    0.0000 C   0  0  0  0  0  0  0  0  0  0  0  0
   -0.8111   -2.7045    0.0000 C   0  0  0  0  0  0  0  0  0  0  0  0
   -2.1057   -1.9467    0.0000 C   0  0  0  0  0  0  0  0  0  0  0  0
    0.4924   -1.9623    0.0000 C   0  0  0  0  0  0  0  0  0  0  0  0
    0.5014   -0.4624    0.0000 O   0  0  0  0  0  0  0  0  0  0  0  0
    1.7869   -2.7201    0.0000 O   0  0  0  0  0  0  0  0  0  0  0  0
    4.3418   -1.2654    0.0000 C   0  0  0  0  0  0  0  0  0  0  0  0
    4.8518    0.1356    0.0000 C   0  0  0  0  0  0  0  0  0  0  0  0
    4.1467    1.4691    0.0000 C   0  0  0  0  0  0  0  0  0  0  0  0
    2.6621    1.6831    0.0000 C   0  0  0  0  0  0  0  0  0  0  0  0
    5.2050    2.5546    0.0000 C   0  0  0  0  0  0  0  0  0  0  0  0
    4.9543    4.0335    0.0000 O   0  0  0  0  0  0  0  0  0  0  0  0
    6.5513    1.8836    0.0000 O   0  0  0  0  0  0  0  0  0  0  0  0
    6.3403    0.3898    0.0000 C   0  0  0  0  0  0  0  0  0  0  0  0
    7.2907   -0.7717    0.0000 C   0  0  0  0  0  0  0  0  0  0  0  0
    6.7692   -2.1644    0.0000 C   0  0  0  0  0  0  0  0  0  0  0  0
    7.7197   -3.3259    0.0000 C   0  0  0  0  0  0  0  0  0  0  0  0
    7.1900   -4.7302    0.0000 C   0  0  0  0  0  0  0  0  0  0  0  0
    5.7097   -4.9729    0.0000 C   0  0  0  0  0  0  0  0  0  0  0  0
    4.7593   -3.8114    0.0000 C   0  0  0  0  0  0  0  0  0  0  0  0
    2.8399   -6.0384    0.0000 C   0  0  0  0  0  0  0  0  0  0  0  0
    5.2906   -2.4170    0.0000 C   0  0  0  0  0  0  0  0  0  0  0  0
    2.8631   -2.8151    0.0000 C   0  0  0  0  0  0  0  0  0  0  0  0
    6.2057   -6.3886    0.0000 O   0  0  0  0  0  0  0  0  0  0  0  0
    8.7093    1.0524    0.0000 O   0  0  0  0  0  0  0  0  0  0  0  0
    9.0817    2.5055    0.0000 C   0  0  0  0  0  0  0  0  0  0  0  0
  1  2  1  0
  2  3  2  0
  3  4  1  0
  3  5  1  0
  5  6  2  0
  5  7  1  0
  7  8  1  0
  8  9  1  0
  9 10  2  0
 10 11  1  0
 10 12  1  0
 12 13  2  0
 12 14  1  0
 14 15  1  0
  9 15  1  0
 15 16  1  0
 16 17  1  0
 17 18  1  0
 18 19  1  0
 19 20  1  0
 20 21  1  0
 21 22  1  0
 21 23  1  0
 17 23  1  0
  8 23  1  0
 23 24  1  1
 20 25  1  0
 15 26  1  6
 26 27  1  0
M  END
>  <cdk:Title>  (197) 
(4S_4AS_5R_6S_8ar_9ar)-6-hydroxy-9a-methoxy-3_4a_5-trimethyl-2-oxo-2H_4H_4ah_5H_6H_7H_8H_8ah_9H_9ah-naphtho[2_3-b]furan-4-yl (2Z)-2-methylbut-2-enoate

>  <1A2>  (197) 
N

>  <2A6>  (197) 
N

>  <2B6>  (197) 
N

>  <2C8>  (197) 
N

>  <2C9>  (197) 
N

>  <2C19>  (197) 
N

>  <2D6>  (197) 
N

>  <2E1>  (197) 
N

>  <3A4>  (197) 
N

>  <Citation>  (197) 
Nucleic Acids Res. 2018. Jan 4;46(D1):D608-17. PMID:29140435
Nucleic Acids Res. 2018 Jan 4;46(D1):D1074-D1082. PMID:29126136
Nucleic Acids Res., 45:D380-388 (2017).  PMID:27924025
Nucleic Acids Res. 2016 Jan 4;44(D1):D1202-13. PMID:26400175

>  <ROMol>  (197) 
<rdkit.Chem.rdchem.Mol object at 0x7c2906127920>

>  <Drug_like>  (197) 
True

$$$$
(1S_3S_4S_6S_7S_11S_12S_14R_15R_16R)-15-[(2R_5S)-5_6-Dihydroxy-5-(propan-2-yl)he
     RDKit          2D

 38 42  0  0  0  0  0  0  0  0999 V2000
    7.8755   10.9452    0.0000 C   0  0  0  0  0  0  0  0  0  0  0  0
    6.5692   10.2080    0.0000 C   0  0  0  0  0  0  0  0  0  0  0  0
    5.5909   12.9805    0.0000 C   0  0  0  0  0  0  0  0  0  0  0  0
    4.6573    7.9746    0.0000 C   0  0  0  0  0  0  0  0  0  0  0  0
    5.4759    5.6547    0.0000 C   0  0  0  0  0  0  0  0  0  0  0  0
    3.5640    3.4213    0.0000 C   0  0  0  0  0  0  0  0  0  0  0  0
    4.5423    0.6488    0.0000 C   0  0  0  0  0  0  0  0  0  0  0  0
    5.8486    1.3860    0.0000 C   0  0  0  0  0  0  0  0  0  0  0  0
    2.6304   -1.5846    0.0000 C   0  0  0  0  0  0  0  0  0  0  0  0
    3.9204   -2.3446    0.0000 C   0  0  0  0  0  0  0  0  0  0  0  0
    3.9004   -3.8346    0.0000 C   0  0  0  0  0  0  0  0  0  0  0  0
    1.3104   -3.7846    0.0000 C   0  0  0  0  0  0  0  0  0  0  0  0
    2.5774   -4.5876    0.0000 C   0  0  0  0  0  0  0  0  0  0  0  0
   -0.0396   -4.4446    0.0000 C   0  0  0  0  0  0  0  0  0  0  0  0
    0.0204   -6.0446    0.0000 C   0  0  0  0  0  0  0  0  0  0  0  0
   -1.2796   -6.7946    0.0000 C   0  0  0  0  0  0  0  0  0  0  0  0
   -2.5796   -6.0446    0.0000 C   0  0  0  0  0  0  0  0  0  0  0  0
   -3.8796   -6.7846    0.0000 C   0  0  0  0  0  0  0  0  0  0  0  0
   -5.7648   -9.0406    0.0000 C   0  0  0  0  0  0  0  0  0  0  0  0
   -5.1796   -6.0446    0.0000 C   0  0  0  0  0  0  0  0  0  0  0  0
   -5.1796   -4.5346    0.0000 C   0  0  0  0  0  0  0  0  0  0  0  0
   -3.8796   -3.7846    0.0000 C   0  0  0  0  0  0  0  0  0  0  0  0
   -2.5796   -4.5346    0.0000 C   0  0  0  0  0  0  0  0  0  0  0  0
   -2.5896   -3.0346    0.0000 C   0  0  0  0  0  0  0  0  0  0  0  0
   -1.2696   -3.7946    0.0000 C   0  0  0  0  0  0  0  0  0  0  0  0
   -1.2596   -2.2946    0.0000 C   0  0  0  0  0  0  0  0  0  0  0  0
    0.0404   -1.5546    0.0000 C   0  0  0  0  0  0  0  0  0  0  0  0
    1.3304   -2.3146    0.0000 C   0  0  0  0  0  0  0  0  0  0  0  0
    1.3609    0.6252    0.0000 C   0  0  0  0  0  0  0  0  0  0  0  0
   -2.9156   -2.6355    0.0000 O   0  0  0  0  0  0  0  0  0  0  0  0
   -6.6574   -5.7872    0.0000 O   0  0  0  0  0  0  0  0  0  0  0  0
   -1.9944   -9.0406    0.0000 C   0  0  0  0  0  0  0  0  0  0  0  0
   -0.5167   -8.7832    0.0000 O   0  0  0  0  0  0  0  0  0  0  0  0
   -2.5103  -10.4491    0.0000 O   0  0  0  0  0  0  0  0  0  0  0  0
    5.3944   -2.6226    0.0000 O   0  0  0  0  0  0  0  0  0  0  0  0
    3.3509    7.2374    0.0000 C   0  0  0  0  0  0  0  0  0  0  0  0
    2.0594    8.0001    0.0000 O   0  0  0  0  0  0  0  0  0  0  0  0
    3.7045    9.1331    0.0000 O   0  0  0  0  0  0  0  0  0  0  0  0
  1  2  1  0
  2  3  1  0
  2  4  1  0
  4  5  1  0
  5  6  1  0
  6  7  1  0
  7  8  1  0
  7  9  1  0
  9 10  1  0
 10 11  1  0
 11 12  1  0
 12 13  1  6
 12 14  1  0
 14 15  1  0
 15 16  1  0
 16 17  1  0
 17 18  1  0
 18 19  1  1
 18 20  1  0
 20 21  1  0
 21 22  1  0
 22 23  1  0
 17 23  1  0
 23 24  1  6
 25 24  1  6
 14 25  1  0
 23 25  1  0
 25 26  1  0
 26 27  1  0
 27 28  1  0
  9 28  1  0
 12 28  1  0
 28 29  1  1
 22 30  1  0
 20 31  1  0
 18 32  1  0
 32 33  2  0
 32 34  1  0
 10 35  1  0
  4 36  1  0
 36 37  1  0
  4 38  1  6
M  END
>  <cdk:Title>  (198) 
(1S_3S_4S_6S_7S_11S_12S_14R_15R_16R)-15-[(2R_5S)-5_6-Dihydroxy-5-(propan-2-yl)hexan-2-yl]-4_6_14-trihydroxy-7_12_16-trimethylpentacyclo[9.7.0.0??_??.0??_???.0????_?????]octadecane-7-carboxylic acid

>  <1A2>  (198) 
N

>  <2A6>  (198) 
N

>  <2B6>  (198) 
N

>  <2C8>  (198) 
N

>  <2C9>  (198) 
N

>  <2C19>  (198) 
N

>  <2D6>  (198) 
N

>  <2E1>  (198) 
N

>  <3A4>  (198) 
N

>  <Citation>  (198) 
Nucleic Acids Res. 2018. Jan 4;46(D1):D608-17. PMID:29140435
Nucleic Acids Res. 2018 Jan 4;46(D1):D1074-D1082. PMID:29126136
Nucleic Acids Res., 45:D380-388 (2017).  PMID:27924025
Nucleic Acids Res. 2016 Jan 4;44(D1):D1202-13. PMID:26400175

>  <ROMol>  (198) 
<rdkit.Chem.rdchem.Mol object at 0x7c2906127a00>

>  <Drug_like>  (198) 
True

$$$$
L-Isoleucyl-L-glutamate
     RDKit          2D

 18 17  0  0  0  0  0  0  0  0999 V2000
   13.8566   -0.4690    0.0000 C   0  0  0  0  0  0  0  0  0  0  0  0
   14.8208    0.6800    0.0000 C   0  0  0  0  0  0  0  0  0  0  0  0
   16.2980    0.4196    0.0000 C   0  0  0  0  0  0  0  0  0  0  0  0
   16.8111   -0.9900    0.0000 O   0  0  0  0  0  0  0  0  0  0  0  0
   17.2622    1.5686    0.0000 O   0  0  0  0  0  0  0  0  0  0  0  0
   12.3794   -0.2086    0.0000 C   0  0  0  0  0  0  0  0  0  0  0  0
   12.3794   -2.1886    0.0000 C   0  0  0  0  0  0  0  0  0  0  0  0
   13.6785   -2.9386    0.0000 O   0  0  0  0  0  0  0  0  0  0  0  0
   11.0804   -2.9386    0.0000 O   0  0  0  0  0  0  0  0  0  0  0  0
   11.8664    1.2010    0.0000 N   0  0  0  0  0  0  0  0  0  0  0  0
   10.3892    1.4615    0.0000 C   0  0  0  0  0  0  0  0  0  0  0  0
    9.4250    0.3124    0.0000 O   0  0  0  0  0  0  0  0  0  0  0  0
    9.8762    2.8710    0.0000 C   0  0  0  0  0  0  0  0  0  0  0  0
   10.2200    4.8209    0.0000 N   0  0  0  0  0  0  0  0  0  0  0  0
    6.9808    3.3815    0.0000 C   0  0  0  0  0  0  0  0  0  0  0  0
    7.2413    4.8587    0.0000 C   0  0  0  0  0  0  0  0  0  0  0  0
    6.2308    2.0825    0.0000 C   0  0  0  0  0  0  0  0  0  0  0  0
    4.7308    2.0825    0.0000 C   0  0  0  0  0  0  0  0  0  0  0  0
  1  2  1  0
  2  3  1  0
  3  4  2  0
  3  5  1  0
  1  6  1  0
  6  7  1  0
  7  8  2  0
  7  9  1  0
  6 10  1  0
 10 11  1  0
 11 12  2  0
 11 13  1  0
 13 14  1  0
 13 15  1  0
 15 16  1  0
 15 17  1  0
 17 18  1  0
M  CHG  1   9  -1
M  END
>  <cdk:Title>  (199) 
L-Isoleucyl-L-glutamate

>  <1A2>  (199) 
N

>  <2A6>  (199) 
N

>  <2B6>  (199) 
N

>  <2C8>  (199) 
N

>  <2C9>  (199) 
N

>  <2C19>  (199) 
N

>  <2D6>  (199) 
N

>  <2E1>  (199) 
N

>  <3A4>  (199) 
N

>  <Citation>  (199) 
Nucleic Acids Res. 2018. Jan 4;46(D1):D608-17. PMID:29140435
Nucleic Acids Res. 2018 Jan 4;46(D1):D1074-D1082. PMID:29126136
Nucleic Acids Res., 45:D380-388 (2017).  PMID:27924025
Nucleic Acids Res. 2016 Jan 4;44(D1):D1202-13. PMID:26400175

>  <ROMol>  (199) 
<rdkit.Chem.rdchem.Mol object at 0x7c2906127a70>

>  <Drug_like>  (199) 
True

$$$$
(1S_2R_5S_10S_11S_14R_15R)-14-[(2R_3E)-5-Ethyl-6-methylhept-3-en-2-yl]-5-hydroxy
     RDKit          2D

 31 34  0  0  0  0  0  0  0  0999 V2000
   12.7450  -12.7714    0.0000 C   0  0  0  0  0  0  0  0  0  0  0  0
   12.2331  -11.3606    0.0000 C   0  0  0  0  0  0  0  0  0  0  0  0
   10.7555  -11.0976    0.0000 C   0  0  0  0  0  0  0  0  0  0  0  0
   10.2435   -9.6867    0.0000 C   0  0  0  0  0  0  0  0  0  0  0  0
    8.7666   -9.4246    0.0000 O   0  0  0  0  0  0  0  0  0  0  0  0
   11.2092   -8.5389    0.0000 C   0  0  0  0  0  0  0  0  0  0  0  0
   12.6868   -8.8020    0.0000 C   0  0  0  0  0  0  0  0  0  0  0  0
   13.6525   -7.6542    0.0000 C   0  0  0  0  0  0  0  0  0  0  0  0
   13.1406   -6.2434    0.0000 C   0  0  0  0  0  0  0  0  0  0  0  0
   11.6630   -5.9803    0.0000 C   0  0  0  0  0  0  0  0  0  0  0  0
   13.0387   -3.9409    0.0000 C   0  0  0  0  0  0  0  0  0  0  0  0
   10.6973   -7.1281    0.0000 C   0  0  0  0  0  0  0  0  0  0  0  0
    9.3005   -6.5671    0.0000 C   0  0  0  0  0  0  0  0  0  0  0  0
    9.4126   -5.0670    0.0000 C   0  0  0  0  0  0  0  0  0  0  0  0
   10.8650   -4.7077    0.0000 C   0  0  0  0  0  0  0  0  0  0  0  0
   10.0251   -2.3955    0.0000 C   0  0  0  0  0  0  0  0  0  0  0  0
   10.0261   -0.8955    0.0000 C   0  0  0  0  0  0  0  0  0  0  0  0
    7.6028   -1.9667    0.0000 C   0  0  0  0  0  0  0  0  0  0  0  0
    6.7629    0.3455    0.0000 C   0  0  0  0  0  0  0  0  0  0  0  0
    6.7649    3.2855    0.0000 C   0  0  0  0  0  0  0  0  0  0  0  0
    8.4802    4.2743    0.0000 C   0  0  0  0  0  0  0  0  0  0  0  0
    8.4812    5.7743    0.0000 C   0  0  0  0  0  0  0  0  0  0  0  0
    4.3420    2.8599    0.0000 C   0  0  0  0  0  0  0  0  0  0  0  0
    3.8280    1.4507    0.0000 C   0  0  0  0  0  0  0  0  0  0  0  0
    4.3436    5.3199    0.0000 C   0  0  0  0  0  0  0  0  0  0  0  0
   13.1988  -10.2128    0.0000 C   0  0  0  0  0  0  0  0  0  0  0  0
   15.9628   -9.2109    0.0000 C   0  0  0  0  0  0  0  0  0  0  0  0
   14.6764  -10.4759    0.0000 C   0  0  0  0  0  0  0  0  0  0  0  0
   15.1883  -11.8867    0.0000 C   0  0  0  0  0  0  0  0  0  0  0  0
   14.2226  -13.0345    0.0000 C   0  0  0  0  0  0  0  0  0  0  0  0
   15.5205  -13.7863    0.0000 O   0  0  0  0  0  0  0  0  0  0  0  0
  1  2  1  0
  2  3  2  0
  3  4  1  0
  4  5  2  0
  4  6  1  0
  6  7  1  0
  7  8  1  0
  8  9  1  0
  9 10  1  0
 10 11  1  1
 10 12  1  0
  6 12  1  0
 12 13  1  0
 13 14  1  0
 14 15  1  0
 10 15  1  0
 15 16  1  0
 16 17  1  0
 16 18  1  0
 18 19  2  0
 19 20  1  0
 20 21  1  0
 21 22  1  0
 20 23  1  0
 23 24  1  0
 23 25  1  0
  7 26  1  0
  2 26  1  0
 26 27  1  1
 26 28  1  0
 28 29  1  0
 29 30  1  0
  1 30  1  0
 30 31  1  0
M  END
>  <cdk:Title>  (200) 
(1S_2R_5S_10S_11S_14R_15R)-14-[(2R_3E)-5-Ethyl-6-methylhept-3-en-2-yl]-5-hydroxy-2_15-dimethyltetracyclo[8.7.0.0??_???.0????_?????]heptadec-7-en-9-one

>  <1A2>  (200) 
N

>  <2A6>  (200) 
N

>  <2B6>  (200) 
N

>  <2C8>  (200) 
N

>  <2C9>  (200) 
N

>  <2C19>  (200) 
N

>  <2D6>  (200) 
N

>  <2E1>  (200) 
N

>  <3A4>  (200) 
N

>  <Citation>  (200) 
Nucleic Acids Res. 2018. Jan 4;46(D1):D608-17. PMID:29140435
Nucleic Acids Res. 2018 Jan 4;46(D1):D1074-D1082. PMID:29126136
Nucleic Acids Res., 45:D380-388 (2017).  PMID:27924025
Nucleic Acids Res. 2016 Jan 4;44(D1):D1202-13. PMID:26400175

>  <ROMol>  (200) 
<rdkit.Chem.rdchem.Mol object at 0x7c2906127ae0>

>  <Drug_like>  (200) 
True

$$$$
Norecasantalal
     RDKit          2D

 12 14  0  0  0  0  0  0  0  0999 V2000
   -2.9466    2.1365    0.0000 C   0  0  0  0  0  0  0  0  0  0  0  0
   -2.9466    0.6365    0.0000 C   0  0  0  0  0  0  0  0  0  0  0  0
   -4.2466   -0.1135    0.0000 C   0  0  0  0  0  0  0  0  0  0  0  0
   -5.5466    0.6365    0.0000 C   0  0  0  0  0  0  0  0  0  0  0  0
   -5.5466    2.1365    0.0000 C   0  0  0  0  0  0  0  0  0  0  0  0
   -4.2466    2.8865    0.0000 C   0  0  0  0  0  0  0  0  0  0  0  0
   -4.2466    4.3865    0.0000 C   0  0  0  0  0  0  0  0  0  0  0  0
   -3.4966    1.3865    0.0000 C   0  0  0  0  0  0  0  0  0  0  0  0
   -1.5622   -0.8275    0.0000 C   0  0  0  0  0  0  0  0  0  0  0  0
   -0.7144    2.3366    0.0000 C   0  0  0  0  0  0  0  0  0  0  0  0
   -0.2389    4.7502    0.0000 C   0  0  0  0  0  0  0  0  0  0  0  0
    1.1806    5.2350    0.0000 O   0  0  0  0  0  0  0  0  0  0  0  0
  1  2  1  0
  2  3  1  0
  3  4  1  0
  4  5  1  0
  1  5  1  0
  5  6  1  0
  1  6  1  0
  6  7  1  0
  6  8  1  0
  3  8  1  0
  8  9  1  1
  8 10  1  0
 10 11  1  0
 11 12  2  0
M  END
>  <cdk:Title>  (201) 
Norecasantalal

>  <1A2>  (201) 
N

>  <2A6>  (201) 
N

>  <2B6>  (201) 
N

>  <2C8>  (201) 
N

>  <2C9>  (201) 
N

>  <2C19>  (201) 
N

>  <2D6>  (201) 
N

>  <2E1>  (201) 
N

>  <3A4>  (201) 
N

>  <Citation>  (201) 
Nucleic Acids Res. 2018. Jan 4;46(D1):D608-17. PMID:29140435
Nucleic Acids Res. 2018 Jan 4;46(D1):D1074-D1082. PMID:29126136
Nucleic Acids Res., 45:D380-388 (2017).  PMID:27924025
Nucleic Acids Res. 2016 Jan 4;44(D1):D1202-13. PMID:26400175

>  <ROMol>  (201) 
<rdkit.Chem.rdchem.Mol object at 0x7c2906127bc0>

>  <Drug_like>  (201) 
True

$$$$
(1S_2R_4AS_7S_8as)-7-(2-hydroxypropan-2-yl)-1_4a-dimethyl-decahydronaphthalen-2-
     RDKit          2D

 17 18  0  0  0  0  0  0  0  0999 V2000
    3.2791    2.8481    0.0000 C   0  0  0  0  0  0  0  0  0  0  0  0
    2.0066    1.3312    0.0000 C   0  0  0  0  0  0  0  0  0  0  0  0
    0.7066    0.5812    0.0000 C   0  0  0  0  0  0  0  0  0  0  0  0
   -0.5934    1.3312    0.0000 C   0  0  0  0  0  0  0  0  0  0  0  0
   -1.8934    0.5812    0.0000 C   0  0  0  0  0  0  0  0  0  0  0  0
   -1.8934   -0.9188    0.0000 C   0  0  0  0  0  0  0  0  0  0  0  0
   -0.5934   -1.6688    0.0000 C   0  0  0  0  0  0  0  0  0  0  0  0
    0.7066   -0.9188    0.0000 C   0  0  0  0  0  0  0  0  0  0  0  0
    0.7066   -3.8588    0.0000 C   0  0  0  0  0  0  0  0  0  0  0  0
    2.0066   -1.6688    0.0000 C   0  0  0  0  0  0  0  0  0  0  0  0
    3.3066   -0.9188    0.0000 C   0  0  0  0  0  0  0  0  0  0  0  0
    3.3066    0.5812    0.0000 C   0  0  0  0  0  0  0  0  0  0  0  0
    4.7838    0.3209    0.0000 O   0  0  0  0  0  0  0  0  0  0  0  0
   -2.8984    3.3441    0.0000 C   0  0  0  0  0  0  0  0  0  0  0  0
   -1.6253    4.8606    0.0000 C   0  0  0  0  0  0  0  0  0  0  0  0
   -5.3211    2.9174    0.0000 C   0  0  0  0  0  0  0  0  0  0  0  0
   -3.8623    4.4934    0.0000 O   0  0  0  0  0  0  0  0  0  0  0  0
  1  2  1  0
  2  3  1  0
  3  4  1  0
  4  5  1  0
  5  6  1  0
  6  7  1  0
  7  8  1  0
  3  8  1  0
  8  9  1  6
  8 10  1  0
 10 11  1  0
 11 12  1  0
  2 12  1  0
 12 13  1  0
  5 14  1  0
 14 15  1  0
 14 16  1  0
 14 17  1  0
M  END
>  <cdk:Title>  (202) 
(1S_2R_4AS_7S_8as)-7-(2-hydroxypropan-2-yl)-1_4a-dimethyl-decahydronaphthalen-2-ol

>  <1A2>  (202) 
N

>  <2A6>  (202) 
N

>  <2B6>  (202) 
N

>  <2C8>  (202) 
N

>  <2C9>  (202) 
N

>  <2C19>  (202) 
N

>  <2D6>  (202) 
N

>  <2E1>  (202) 
N

>  <3A4>  (202) 
N

>  <Citation>  (202) 
Nucleic Acids Res. 2018. Jan 4;46(D1):D608-17. PMID:29140435
Nucleic Acids Res. 2018 Jan 4;46(D1):D1074-D1082. PMID:29126136
Nucleic Acids Res., 45:D380-388 (2017).  PMID:27924025
Nucleic Acids Res. 2016 Jan 4;44(D1):D1202-13. PMID:26400175

>  <ROMol>  (202) 
<rdkit.Chem.rdchem.Mol object at 0x7c2906127ca0>

>  <Drug_like>  (202) 
True

$$$$
Bornyl 2-methylbutyrate
     RDKit          2D

 17 18  0  0  0  0  0  0  0  0999 V2000
   10.3606    1.4572    0.0000 C   0  0  0  0  0  0  0  0  0  0  0  0
    8.8836    1.7191    0.0000 C   0  0  0  0  0  0  0  0  0  0  0  0
    7.9183    0.5710    0.0000 C   0  0  0  0  0  0  0  0  0  0  0  0
    7.4038   -0.8380    0.0000 C   0  0  0  0  0  0  0  0  0  0  0  0
    6.4413    0.8330    0.0000 C   0  0  0  0  0  0  0  0  0  0  0  0
    5.4760   -0.3151    0.0000 O   0  0  0  0  0  0  0  0  0  0  0  0
    5.9297    2.2431    0.0000 O   0  0  0  0  0  0  0  0  0  0  0  0
    4.4528    2.5050    0.0000 C   0  0  0  0  0  0  0  0  0  0  0  0
    4.9686    3.9135    0.0000 C   0  0  0  0  0  0  0  0  0  0  0  0
    4.0153    5.0614    0.0000 C   0  0  0  0  0  0  0  0  0  0  0  0
    2.5366    4.8043    0.0000 C   0  0  0  0  0  0  0  0  0  0  0  0
    2.0208    3.3958    0.0000 C   0  0  0  0  0  0  0  0  0  0  0  0
    2.9835    2.2444    0.0000 C   0  0  0  0  0  0  0  0  0  0  0  0
    2.6825    3.9521    0.0000 C   0  0  0  0  0  0  0  0  0  0  0  0
    0.3697    3.1139    0.0000 C   0  0  0  0  0  0  0  0  0  0  0  0
    1.4582    6.0858    0.0000 C   0  0  0  0  0  0  0  0  0  0  0  0
    2.3057    0.3841    0.0000 C   0  0  0  0  0  0  0  0  0  0  0  0
  1  2  1  0
  2  3  1  0
  3  4  1  0
  3  5  1  0
  5  6  2  0
  5  7  1  0
  7  8  1  0
  8  9  1  0
  9 10  1  0
 10 11  1  0
 11 12  1  0
 12 13  1  0
  8 13  1  0
 13 14  1  0
 10 14  1  0
 14 15  1  0
 14 16  1  0
 13 17  1  6
M  END
>  <cdk:Title>  (203) 
Bornyl 2-methylbutyrate

>  <1A2>  (203) 
N

>  <2A6>  (203) 
N

>  <2B6>  (203) 
N

>  <2C8>  (203) 
N

>  <2C9>  (203) 
N

>  <2C19>  (203) 
N

>  <2D6>  (203) 
N

>  <2E1>  (203) 
N

>  <3A4>  (203) 
N

>  <Citation>  (203) 
Nucleic Acids Res. 2018. Jan 4;46(D1):D608-17. PMID:29140435
Nucleic Acids Res. 2018 Jan 4;46(D1):D1074-D1082. PMID:29126136
Nucleic Acids Res., 45:D380-388 (2017).  PMID:27924025
Nucleic Acids Res. 2016 Jan 4;44(D1):D1202-13. PMID:26400175

>  <ROMol>  (203) 
<rdkit.Chem.rdchem.Mol object at 0x7c2906127d80>

>  <Drug_like>  (203) 
True

$$$$
(4R_9R_15S_18S_19S_20R_21R)-9_12-Dimethyl-6-(propan-2-yl)-14_16-dioxahexacyclo[1
     RDKit          2D

 31 36  0  0  0  0  0  0  0  0999 V2000
    1.9856   -7.0060    0.0000 C   0  0  0  0  0  0  0  0  0  0  0  0
    0.4858   -6.9835    0.0000 C   0  0  0  0  0  0  0  0  0  0  0  0
   -0.2447   -5.6734    0.0000 C   0  0  0  0  0  0  0  0  0  0  0  0
    0.5247   -4.3857    0.0000 C   0  0  0  0  0  0  0  0  0  0  0  0
    2.0245   -4.4082    0.0000 C   0  0  0  0  0  0  0  0  0  0  0  0
    2.7550   -5.7183    0.0000 C   0  0  0  0  0  0  0  0  0  0  0  0
    2.9772   -3.2496    0.0000 C   0  0  0  0  0  0  0  0  0  0  0  0
    2.6653   -1.7823    0.0000 C   0  0  0  0  0  0  0  0  0  0  0  0
    1.3237   -1.1114    0.0000 C   0  0  0  0  0  0  0  0  0  0  0  0
   -0.0373   -1.7419    0.0000 C   0  0  0  0  0  0  0  0  0  0  0  0
   -0.3929   -3.1991    0.0000 C   0  0  0  0  0  0  0  0  0  0  0  0
    1.3663    0.4677    0.0000 C   0  0  0  0  0  0  0  0  0  0  0  0
    5.7028    0.8984    0.0000 C   0  0  0  0  0  0  0  0  0  0  0  0
    4.2762    0.4349    0.0000 C   0  0  0  0  0  0  0  0  0  0  0  0
    3.9643   -1.0323    0.0000 C   0  0  0  0  0  0  0  0  0  0  0  0
    5.0791   -2.0360    0.0000 C   0  0  0  0  0  0  0  0  0  0  0  0
    4.4690   -3.4064    0.0000 O   0  0  0  0  0  0  0  0  0  0  0  0
    6.5056   -1.5725    0.0000 O   0  0  0  0  0  0  0  0  0  0  0  0
    6.8175   -0.1053    0.0000 C   0  0  0  0  0  0  0  0  0  0  0  0
    2.7508   -0.1507    0.0000 O   0  0  0  0  0  0  0  0  0  0  0  0
    3.8670    3.3463    0.0000 O   0  0  0  0  0  0  0  0  0  0  0  0
    6.0147    2.3656    0.0000 O   0  0  0  0  0  0  0  0  0  0  0  0
    1.2808    1.9652    0.0000 O   0  0  0  0  0  0  0  0  0  0  0  0
    4.8624   -5.1762    0.0000 C   0  0  0  0  0  0  0  0  0  0  0  0
   -1.7164   -5.9633    0.0000 C   0  0  0  0  0  0  0  0  0  0  0  0
   -1.8955   -7.4526    0.0000 C   0  0  0  0  0  0  0  0  0  0  0  0
   -0.5345   -8.0831    0.0000 C   0  0  0  0  0  0  0  0  0  0  0  0
   -3.8716   -3.9636    0.0000 C   0  0  0  0  0  0  0  0  0  0  0  0
   -3.3242   -1.5653    0.0000 C   0  0  0  0  0  0  0  0  0  0  0  0
   -4.6854   -5.2236    0.0000 C   0  0  0  0  0  0  0  0  0  0  0  0
    1.6413   -9.6869    0.0000 C   0  0  0  0  0  0  0  0  0  0  0  0
  1  2  1  0
  2  3  1  0
  3  4  1  0
  4  5  1  0
  5  6  1  0
  1  6  1  0
  5  7  1  0
  7  8  1  0
  8  9  1  0
  9 10  2  0
 10 11  1  0
  4 11  1  0
  9 12  1  0
 12 13  1  0
 13 14  1  0
 14 15  1  0
  8 15  1  0
 15 16  1  0
 16 17  1  0
  7 17  1  0
 16 18  1  0
 18 19  1  0
 13 19  1  0
 15 20  1  6
 14 21  1  0
 13 22  1  6
 12 23  1  0
  5 24  1  6
  3 25  2  0
 25 26  1  0
 26 27  1  0
  2 27  1  0
 25 28  1  0
 28 29  1  0
 28 30  1  0
  2 31  1  1
M  END
>  <cdk:Title>  (204) 
(4R_9R_15S_18S_19S_20R_21R)-9_12-Dimethyl-6-(propan-2-yl)-14_16-dioxahexacyclo[16.3.1.0???_????.0???_???.0????_????.0?????_?????]docosa-1_5-diene-18_19_20_22-tetrol

>  <1A2>  (204) 
N

>  <2A6>  (204) 
N

>  <2B6>  (204) 
N

>  <2C8>  (204) 
N

>  <2C9>  (204) 
N

>  <2C19>  (204) 
N

>  <2D6>  (204) 
N

>  <2E1>  (204) 
N

>  <3A4>  (204) 
N

>  <Citation>  (204) 
Nucleic Acids Res. 2018. Jan 4;46(D1):D608-17. PMID:29140435
Nucleic Acids Res. 2018 Jan 4;46(D1):D1074-D1082. PMID:29126136
Nucleic Acids Res., 45:D380-388 (2017).  PMID:27924025
Nucleic Acids Res. 2016 Jan 4;44(D1):D1202-13. PMID:26400175

>  <ROMol>  (204) 
<rdkit.Chem.rdchem.Mol object at 0x7c2906127df0>

>  <Drug_like>  (204) 
True

$$$$
4-Hydroxyestrone sulfate
     RDKit          2D

 25 28  0  0  0  0  0  0  0  0999 V2000
    1.3828    3.5474    0.0000 C   0  0  0  0  0  0  0  0  0  0  0  0
    1.0717    0.6239    0.0000 C   0  0  0  0  0  0  0  0  0  0  0  0
   -0.2283    1.3739    0.0000 C   0  0  0  0  0  0  0  0  0  0  0  0
   -1.5283    0.6239    0.0000 C   0  0  0  0  0  0  0  0  0  0  0  0
   -1.5283   -0.8761    0.0000 C   0  0  0  0  0  0  0  0  0  0  0  0
   -0.2283   -1.6261    0.0000 C   0  0  0  0  0  0  0  0  0  0  0  0
   -0.2283   -3.1261    0.0000 C   0  0  0  0  0  0  0  0  0  0  0  0
   -1.5283   -3.8761    0.0000 C   0  0  0  0  0  0  0  0  0  0  0  0
   -2.8283   -3.1261    0.0000 C   0  0  0  0  0  0  0  0  0  0  0  0
   -4.1283   -3.8761    0.0000 C   0  0  0  0  0  0  0  0  0  0  0  0
   -4.1283   -5.3761    0.0000 O   0  0  0  0  0  0  0  0  0  0  0  0
   -5.4283   -3.1261    0.0000 C   0  0  0  0  0  0  0  0  0  0  0  0
   -6.7272   -3.8763    0.0000 O   0  0  0  0  0  0  0  0  0  0  0  0
   -8.0264   -3.1265    0.0000 S   0  0  0  0  0  0  0  0  0  0  0  0
   -9.3253   -3.8767    0.0000 O   0  0  0  0  0  0  0  0  0  0  0  0
   -7.0624   -1.9773    0.0000 O   0  0  0  0  0  0  0  0  0  0  0  0
   -8.9908   -1.9776    0.0000 O   0  0  0  0  0  0  0  0  0  0  0  0
   -5.4283   -1.6261    0.0000 C   0  0  0  0  0  0  0  0  0  0  0  0
   -4.1283   -0.8761    0.0000 C   0  0  0  0  0  0  0  0  0  0  0  0
   -2.8283   -1.6261    0.0000 C   0  0  0  0  0  0  0  0  0  0  0  0
    1.0717   -0.8761    0.0000 C   0  0  0  0  0  0  0  0  0  0  0  0
    2.5017   -1.3361    0.0000 C   0  0  0  0  0  0  0  0  0  0  0  0
    3.3817   -0.1261    0.0000 C   0  0  0  0  0  0  0  0  0  0  0  0
    2.5017    1.0839    0.0000 C   0  0  0  0  0  0  0  0  0  0  0  0
    2.9670    2.5099    0.0000 O   0  0  0  0  0  0  0  0  0  0  0  0
  2  1  1  6
  2  3  1  0
  3  4  1  0
  4  5  1  0
  5  6  1  0
  6  7  1  0
  7  8  1  0
  8  9  1  0
  9 10  2  0
 10 11  1  0
 10 12  1  0
 12 13  1  0
 13 14  1  0
 14 15  1  0
 14 16  2  0
 14 17  2  0
 12 18  2  0
 18 19  1  0
 19 20  2  0
  5 20  1  0
  9 20  1  0
  6 21  1  0
  2 21  1  0
 21 22  1  0
 22 23  1  0
 23 24  1  0
  2 24  1  0
 24 25  2  0
M  END
>  <cdk:Title>  (205) 
4-Hydroxyestrone sulfate

>  <1A2>  (205) 
N

>  <2A6>  (205) 
N

>  <2B6>  (205) 
N

>  <2C8>  (205) 
N

>  <2C9>  (205) 
N

>  <2C19>  (205) 
N

>  <2D6>  (205) 
N

>  <2E1>  (205) 
N

>  <3A4>  (205) 
N

>  <Citation>  (205) 
Nucleic Acids Res. 2018. Jan 4;46(D1):D608-17. PMID:29140435
Nucleic Acids Res. 2018 Jan 4;46(D1):D1074-D1082. PMID:29126136
Nucleic Acids Res., 45:D380-388 (2017).  PMID:27924025
Nucleic Acids Res. 2016 Jan 4;44(D1):D1202-13. PMID:26400175

>  <ROMol>  (205) 
<rdkit.Chem.rdchem.Mol object at 0x7c2906127ed0>

>  <Drug_like>  (205) 
True

$$$$
(3R)-2_3_6_7_8_9_10_10a-Octahydro-4_7_10abeta-trimethyl-1H-3abeta_8beta-methano-
     RDKit          2D

 18 21  0  0  0  0  0  0  0  0999 V2000
   -0.2902    1.3644    0.0000 C   0  0  0  0  0  0  0  0  0  0  0  0
    1.2098    1.3644    0.0000 C   0  0  0  0  0  0  0  0  0  0  0  0
    1.6733    2.7910    0.0000 C   0  0  0  0  0  0  0  0  0  0  0  0
    0.4598    3.6727    0.0000 C   0  0  0  0  0  0  0  0  0  0  0  0
   -0.7537    2.7910    0.0000 C   0  0  0  0  0  0  0  0  0  0  0  0
    3.9239    3.1727    0.0000 C   0  0  0  0  0  0  0  0  0  0  0  0
    3.7447    4.9206    0.0000 C   0  0  0  0  0  0  0  0  0  0  0  0
    1.7588    5.9227    0.0000 C   0  0  0  0  0  0  0  0  0  0  0  0
    1.7588    4.4227    0.0000 C   0  0  0  0  0  0  0  0  0  0  0  0
    0.4598    6.6727    0.0000 C   0  0  0  0  0  0  0  0  0  0  0  0
   -0.8393    5.9227    0.0000 O   0  0  0  0  0  0  0  0  0  0  0  0
   -0.8393    4.4227    0.0000 C   0  0  0  0  0  0  0  0  0  0  0  0
   -2.7345    5.9476    0.0000 O   0  0  0  0  0  0  0  0  0  0  0  0
   -1.8085    7.5515    0.0000 C   0  0  0  0  0  0  0  0  0  0  0  0
   -3.3854    2.9527    0.0000 C   0  0  0  0  0  0  0  0  0  0  0  0
    0.4598    8.1727    0.0000 C   0  0  0  0  0  0  0  0  0  0  0  0
   -2.6368    3.4028    0.0000 C   0  0  0  0  0  0  0  0  0  0  0  0
    3.0436    2.1809    0.0000 O   0  0  0  0  0  0  0  0  0  0  0  0
  1  2  1  0
  2  3  1  0
  4  3  1  6
  4  5  1  0
  1  5  1  0
  5  6  1  0
  6  7  1  0
  7  8  1  0
  8  9  1  0
  4  9  1  0
  8 10  1  0
 10 11  1  0
 11 12  1  0
  4 12  1  0
 12 13  1  0
 13 14  1  0
 10 14  1  0
 12 15  1  1
 10 16  1  1
  5 17  1  6
  3 18  1  0
M  END
>  <cdk:Title>  (206) 
(3R)-2_3_6_7_8_9_10_10a-Octahydro-4_7_10abeta-trimethyl-1H-3abeta_8beta-methano-4alpha_7alpha-epoxy-4H-5-oxacyclopentacyclononene-3beta-ol

>  <1A2>  (206) 
N

>  <2A6>  (206) 
N

>  <2B6>  (206) 
N

>  <2C8>  (206) 
N

>  <2C9>  (206) 
N

>  <2C19>  (206) 
N

>  <2D6>  (206) 
N

>  <2E1>  (206) 
N

>  <3A4>  (206) 
N

>  <Citation>  (206) 
Nucleic Acids Res. 2018. Jan 4;46(D1):D608-17. PMID:29140435
Nucleic Acids Res. 2018 Jan 4;46(D1):D1074-D1082. PMID:29126136
Nucleic Acids Res., 45:D380-388 (2017).  PMID:27924025
Nucleic Acids Res. 2016 Jan 4;44(D1):D1202-13. PMID:26400175

>  <ROMol>  (206) 
<rdkit.Chem.rdchem.Mol object at 0x7c2905d00120>

>  <Drug_like>  (206) 
True

$$$$
D-Glucosylsphingosine
     RDKit          2D

 32 32  0  0  0  0  0  0  0  0999 V2000
   22.1303    7.4002    0.0000 O   0  0  0  0  0  0  0  0  0  0  0  0
   21.6140    8.8086    0.0000 C   0  0  0  0  0  0  0  0  0  0  0  0
   20.1362    9.0656    0.0000 C   0  0  0  0  0  0  0  0  0  0  0  0
   20.8091   10.9278    0.0000 N   0  0  0  0  0  0  0  0  0  0  0  0
   19.1747    7.9144    0.0000 C   0  0  0  0  0  0  0  0  0  0  0  0
   18.6649    6.5036    0.0000 O   0  0  0  0  0  0  0  0  0  0  0  0
   17.6969    8.1714    0.0000 C   0  0  0  0  0  0  0  0  0  0  0  0
   16.7353    7.0201    0.0000 C   0  0  0  0  0  0  0  0  0  0  0  0
   15.2575    7.2772    0.0000 C   0  0  0  0  0  0  0  0  0  0  0  0
   13.6806    5.3891    0.0000 C   0  0  0  0  0  0  0  0  0  0  0  0
   11.7299    5.7284    0.0000 C   0  0  0  0  0  0  0  0  0  0  0  0
   10.4607    4.2088    0.0000 C   0  0  0  0  0  0  0  0  0  0  0  0
    8.5100    4.5481    0.0000 C   0  0  0  0  0  0  0  0  0  0  0  0
    7.2407    3.0284    0.0000 C   0  0  0  0  0  0  0  0  0  0  0  0
    4.8171    3.4500    0.0000 C   0  0  0  0  0  0  0  0  0  0  0  0
    3.5479    1.9303    0.0000 C   0  0  0  0  0  0  0  0  0  0  0  0
    1.5972    2.2696    0.0000 C   0  0  0  0  0  0  0  0  0  0  0  0
    0.3280    0.7499    0.0000 C   0  0  0  0  0  0  0  0  0  0  0  0
   -1.6227    1.0893    0.0000 C   0  0  0  0  0  0  0  0  0  0  0  0
   -2.5843   -0.0620    0.0000 C   0  0  0  0  0  0  0  0  0  0  0  0
   -4.0621    0.1951    0.0000 C   0  0  0  0  0  0  0  0  0  0  0  0
   24.0810    7.0609    0.0000 C   0  0  0  0  0  0  0  0  0  0  0  0
   23.5778    5.6584    0.0000 C   0  0  0  0  0  0  0  0  0  0  0  0
   22.6199    4.5041    0.0000 O   0  0  0  0  0  0  0  0  0  0  0  0
   24.5636    4.4973    0.0000 C   0  0  0  0  0  0  0  0  0  0  0  0
   25.0888    3.0922    0.0000 O   0  0  0  0  0  0  0  0  0  0  0  0
   26.0439    4.7736    0.0000 C   0  0  0  0  0  0  0  0  0  0  0  0
   27.5228    4.5227    0.0000 O   0  0  0  0  0  0  0  0  0  0  0  0
   26.5471    6.1761    0.0000 C   0  0  0  0  0  0  0  0  0  0  0  0
   25.5767    7.3211    0.0000 O   0  0  0  0  0  0  0  0  0  0  0  0
   27.5057    7.3298    0.0000 C   0  0  0  0  0  0  0  0  0  0  0  0
   28.9842    7.0765    0.0000 O   0  0  0  0  0  0  0  0  0  0  0  0
  1  2  1  0
  2  3  1  0
  3  4  1  0
  3  5  1  0
  5  6  1  0
  5  7  1  0
  7  8  2  0
  8  9  1  0
  9 10  1  0
 10 11  1  0
 11 12  1  0
 12 13  1  0
 13 14  1  0
 14 15  1  0
 15 16  1  0
 16 17  1  0
 17 18  1  0
 18 19  1  0
 19 20  1  0
 20 21  1  0
  1 22  1  0
 22 23  1  0
 23 24  1  0
 23 25  1  0
 25 26  1  0
 25 27  1  0
 27 28  1  0
 27 29  1  0
 29 30  1  0
 22 30  1  0
 29 31  1  0
 31 32  1  0
M  END
>  <cdk:Title>  (207) 
D-Glucosylsphingosine

>  <1A2>  (207) 
N

>  <2A6>  (207) 
N

>  <2B6>  (207) 
N

>  <2C8>  (207) 
N

>  <2C9>  (207) 
N

>  <2C19>  (207) 
N

>  <2D6>  (207) 
N

>  <2E1>  (207) 
N

>  <3A4>  (207) 
N

>  <Citation>  (207) 
Nucleic Acids Res. 2018. Jan 4;46(D1):D608-17. PMID:29140435
Nucleic Acids Res. 2018 Jan 4;46(D1):D1074-D1082. PMID:29126136
Nucleic Acids Res., 45:D380-388 (2017).  PMID:27924025
Nucleic Acids Res. 2016 Jan 4;44(D1):D1202-13. PMID:26400175

>  <ROMol>  (207) 
<rdkit.Chem.rdchem.Mol object at 0x7c2905d00190>

>  <Drug_like>  (207) 
True

$$$$
Epoxyganoderiol a
     RDKit          2D

 34 38  0  0  0  0  0  0  0  0999 V2000
    3.2536    6.6587    0.0000 C   0  0  0  0  0  0  0  0  0  0  0  0
    4.2170    5.5090    0.0000 C   0  0  0  0  0  0  0  0  0  0  0  0
    5.9311    4.5179    0.0000 C   0  0  0  0  0  0  0  0  0  0  0  0
    7.2306    5.2670    0.0000 C   0  0  0  0  0  0  0  0  0  0  0  0
    8.5291    4.5162    0.0000 C   0  0  0  0  0  0  0  0  0  0  0  0
    9.5178    3.3874    0.0000 C   0  0  0  0  0  0  0  0  0  0  0  0
   10.8056    4.1566    0.0000 C   0  0  0  0  0  0  0  0  0  0  0  0
   10.0428    1.9823    0.0000 C   0  0  0  0  0  0  0  0  0  0  0  0
   11.5222    1.7344    0.0000 O   0  0  0  0  0  0  0  0  0  0  0  0
    8.0013    3.1166    0.0000 O   0  0  0  0  0  0  0  0  0  0  0  0
    1.6699    4.0407    0.0000 C   0  0  0  0  0  0  0  0  0  0  0  0
    2.5499    2.8307    0.0000 C   0  0  0  0  0  0  0  0  0  0  0  0
    1.6699    1.6207    0.0000 C   0  0  0  0  0  0  0  0  0  0  0  0
    0.2399    2.0807    0.0000 C   0  0  0  0  0  0  0  0  0  0  0  0
    1.0540   -0.7443    0.0000 C   0  0  0  0  0  0  0  0  0  0  0  0
   -1.0601    1.3307    0.0000 C   0  0  0  0  0  0  0  0  0  0  0  0
   -2.3601    2.0807    0.0000 C   0  0  0  0  0  0  0  0  0  0  0  0
   -2.3601    3.5807    0.0000 C   0  0  0  0  0  0  0  0  0  0  0  0
   -1.0601    4.3307    0.0000 C   0  0  0  0  0  0  0  0  0  0  0  0
    0.2399    3.5807    0.0000 C   0  0  0  0  0  0  0  0  0  0  0  0
    0.5510    6.5042    0.0000 C   0  0  0  0  0  0  0  0  0  0  0  0
   -3.6601    1.3307    0.0000 C   0  0  0  0  0  0  0  0  0  0  0  0
   -3.6601    4.2707    0.0000 C   0  0  0  0  0  0  0  0  0  0  0  0
   -4.9601    2.0807    0.0000 C   0  0  0  0  0  0  0  0  0  0  0  0
   -6.2601    1.3307    0.0000 C   0  0  0  0  0  0  0  0  0  0  0  0
   -6.2601   -0.1693    0.0000 C   0  0  0  0  0  0  0  0  0  0  0  0
   -4.9601   -0.9193    0.0000 C   0  0  0  0  0  0  0  0  0  0  0  0
   -6.8496   -3.1717    0.0000 C   0  0  0  0  0  0  0  0  0  0  0  0
   -3.0705   -3.1717    0.0000 C   0  0  0  0  0  0  0  0  0  0  0  0
   -3.6601   -0.1693    0.0000 C   0  0  0  0  0  0  0  0  0  0  0  0
   -2.3601   -0.9193    0.0000 C   0  0  0  0  0  0  0  0  0  0  0  0
   -1.0601   -0.1693    0.0000 C   0  0  0  0  0  0  0  0  0  0  0  0
   -0.5502   -3.0647    0.0000 O   0  0  0  0  0  0  0  0  0  0  0  0
   -7.5590   -0.9195    0.0000 O   0  0  0  0  0  0  0  0  0  0  0  0
  1  2  1  0
  2  3  1  0
  3  4  1  0
  4  5  1  0
  5  6  1  0
  6  7  1  1
  6  8  1  0
  8  9  1  0
  6 10  1  0
  5 10  1  0
  2 11  1  0
 11 12  1  0
 12 13  1  0
 13 14  1  0
 14 15  1  1
 14 16  1  0
 16 17  2  0
 17 18  1  0
 18 19  1  0
 19 20  1  0
 11 20  1  0
 14 20  1  0
 20 21  1  1
 17 22  1  0
 22 23  1  1
 22 24  1  0
 24 25  1  0
 25 26  1  0
 26 27  1  0
 27 28  1  0
 27 29  1  0
 27 30  1  0
 22 30  1  0
 30 31  1  0
 31 32  1  0
 16 32  1  0
 32 33  1  0
 26 34  2  0
M  END
>  <cdk:Title>  (208) 
Epoxyganoderiol a

>  <1A2>  (208) 
N

>  <2A6>  (208) 
N

>  <2B6>  (208) 
N

>  <2C8>  (208) 
N

>  <2C9>  (208) 
N

>  <2C19>  (208) 
N

>  <2D6>  (208) 
N

>  <2E1>  (208) 
N

>  <3A4>  (208) 
N

>  <Citation>  (208) 
Nucleic Acids Res. 2018. Jan 4;46(D1):D608-17. PMID:29140435
Nucleic Acids Res. 2018 Jan 4;46(D1):D1074-D1082. PMID:29126136
Nucleic Acids Res., 45:D380-388 (2017).  PMID:27924025
Nucleic Acids Res. 2016 Jan 4;44(D1):D1202-13. PMID:26400175

>  <ROMol>  (208) 
<rdkit.Chem.rdchem.Mol object at 0x7c2905d00270>

>  <Drug_like>  (208) 
True

$$$$
Cadabicilone
     RDKit          2D

 18 20  0  0  0  0  0  0  0  0999 V2000
    3.7120   -2.3247    0.0000 C   0  0  0  0  0  0  0  0  0  0  0  0
    2.4130   -1.5745    0.0000 C   0  0  0  0  0  0  0  0  0  0  0  0
    1.3030   -0.5745    0.0000 C   0  0  0  0  0  0  0  0  0  0  0  0
    1.3030    0.9255    0.0000 C   0  0  0  0  0  0  0  0  0  0  0  0
    0.0030    1.6755    0.0000 C   0  0  0  0  0  0  0  0  0  0  0  0
   -1.2970    0.9255    0.0000 C   0  0  0  0  0  0  0  0  0  0  0  0
   -1.2970    3.8655    0.0000 C   0  0  0  0  0  0  0  0  0  0  0  0
   -2.5970    1.6755    0.0000 C   0  0  0  0  0  0  0  0  0  0  0  0
   -3.8970    0.9255    0.0000 C   0  0  0  0  0  0  0  0  0  0  0  0
   -3.8970   -0.5745    0.0000 C   0  0  0  0  0  0  0  0  0  0  0  0
   -2.5970   -1.3245    0.0000 C   0  0  0  0  0  0  0  0  0  0  0  0
   -3.5611   -2.4737    0.0000 C   0  0  0  0  0  0  0  0  0  0  0  0
   -1.2970   -0.5745    0.0000 C   0  0  0  0  0  0  0  0  0  0  0  0
    0.0030   -1.3245    0.0000 C   0  0  0  0  0  0  0  0  0  0  0  0
    0.3130   -2.7845    0.0000 O   0  0  0  0  0  0  0  0  0  0  0  0
    1.8030   -2.9445    0.0000 C   0  0  0  0  0  0  0  0  0  0  0  0
    2.5515   -4.2444    0.0000 O   0  0  0  0  0  0  0  0  0  0  0  0
   -5.1959   -1.3247    0.0000 O   0  0  0  0  0  0  0  0  0  0  0  0
  1  2  1  0
  2  3  1  0
  3  4  1  0
  4  5  1  0
  5  6  1  0
  6  7  1  6
  6  8  1  0
  8  9  1  0
  9 10  1  0
 10 11  1  0
 11 12  1  0
 11 13  1  0
  6 13  1  0
 13 14  1  0
  3 14  1  0
 14 15  1  0
 15 16  1  0
  2 16  1  0
 16 17  2  0
 10 18  2  0
M  END
>  <cdk:Title>  (209) 
Cadabicilone

>  <1A2>  (209) 
N

>  <2A6>  (209) 
N

>  <2B6>  (209) 
N

>  <2C8>  (209) 
N

>  <2C9>  (209) 
N

>  <2C19>  (209) 
N

>  <2D6>  (209) 
N

>  <2E1>  (209) 
N

>  <3A4>  (209) 
N

>  <Citation>  (209) 
Nucleic Acids Res. 2018. Jan 4;46(D1):D608-17. PMID:29140435
Nucleic Acids Res. 2018 Jan 4;46(D1):D1074-D1082. PMID:29126136
Nucleic Acids Res., 45:D380-388 (2017).  PMID:27924025
Nucleic Acids Res. 2016 Jan 4;44(D1):D1202-13. PMID:26400175

>  <ROMol>  (209) 
<rdkit.Chem.rdchem.Mol object at 0x7c2905d00350>

>  <Drug_like>  (209) 
True

$$$$
Sapogenol C
     RDKit          2D

 32 36  0  0  0  0  0  0  0  0999 V2000
    3.6373    4.9725    0.0000 C   0  0  0  0  0  0  0  0  0  0  0  0
    2.6745    3.8223    0.0000 C   0  0  0  0  0  0  0  0  0  0  0  0
    1.0892    5.7034    0.0000 C   0  0  0  0  0  0  0  0  0  0  0  0
    3.9745    3.0723    0.0000 C   0  0  0  0  0  0  0  0  0  0  0  0
    3.9745    1.5723    0.0000 C   0  0  0  0  0  0  0  0  0  0  0  0
    2.6745    0.8223    0.0000 C   0  0  0  0  0  0  0  0  0  0  0  0
    5.2204   -0.6481    0.0000 C   0  0  0  0  0  0  0  0  0  0  0  0
    2.6745   -0.6777    0.0000 C   0  0  0  0  0  0  0  0  0  0  0  0
    1.3845   -1.4277    0.0000 C   0  0  0  0  0  0  0  0  0  0  0  0
    0.0845   -0.6777    0.0000 C   0  0  0  0  0  0  0  0  0  0  0  0
   -0.5927   -2.5383    0.0000 C   0  0  0  0  0  0  0  0  0  0  0  0
    0.0845    0.8223    0.0000 C   0  0  0  0  0  0  0  0  0  0  0  0
   -1.2155    1.5723    0.0000 C   0  0  0  0  0  0  0  0  0  0  0  0
   -2.5155    0.8223    0.0000 C   0  0  0  0  0  0  0  0  0  0  0  0
   -2.5155   -0.6777    0.0000 C   0  0  0  0  0  0  0  0  0  0  0  0
   -3.8155   -1.4277    0.0000 C   0  0  0  0  0  0  0  0  0  0  0  0
   -3.8155    1.5123    0.0000 C   0  0  0  0  0  0  0  0  0  0  0  0
   -5.1155   -0.6777    0.0000 C   0  0  0  0  0  0  0  0  0  0  0  0
   -6.4155   -1.4277    0.0000 C   0  0  0  0  0  0  0  0  0  0  0  0
   -6.4155   -2.9277    0.0000 C   0  0  0  0  0  0  0  0  0  0  0  0
   -5.1155   -3.6777    0.0000 C   0  0  0  0  0  0  0  0  0  0  0  0
   -6.6966   -5.5624    0.0000 C   0  0  0  0  0  0  0  0  0  0  0  0
   -3.5344   -5.5624    0.0000 C   0  0  0  0  0  0  0  0  0  0  0  0
   -4.0476   -6.9719    0.0000 O   0  0  0  0  0  0  0  0  0  0  0  0
   -3.8155   -2.9277    0.0000 C   0  0  0  0  0  0  0  0  0  0  0  0
   -2.5155   -3.6777    0.0000 C   0  0  0  0  0  0  0  0  0  0  0  0
   -1.2155   -2.9277    0.0000 C   0  0  0  0  0  0  0  0  0  0  0  0
   -1.2155   -1.4277    0.0000 C   0  0  0  0  0  0  0  0  0  0  0  0
    1.3304   -2.8981    0.0000 C   0  0  0  0  0  0  0  0  0  0  0  0
   -7.8927   -2.6674    0.0000 O   0  0  0  0  0  0  0  0  0  0  0  0
    1.3845    1.5723    0.0000 C   0  0  0  0  0  0  0  0  0  0  0  0
    1.3845    3.0723    0.0000 C   0  0  0  0  0  0  0  0  0  0  0  0
  1  2  1  0
  2  3  1  0
  2  4  1  0
  4  5  2  0
  5  6  1  0
  6  7  1  1
  6  8  1  0
  8  9  1  0
  9 10  1  0
 10 11  1  6
 10 12  1  0
 12 13  2  0
 13 14  1  0
 14 15  1  0
 15 16  1  0
 16 17  1  1
 16 18  1  0
 18 19  1  0
 19 20  1  0
 20 21  1  0
 21 22  1  6
 21 23  1  0
 23 24  1  0
 21 25  1  0
 16 25  1  0
 25 26  1  0
 26 27  1  0
 27 28  1  0
 15 28  1  0
 10 28  1  0
 28 29  1  6
 20 30  1  0
 12 31  1  0
  6 31  1  0
 31 32  1  0
  2 32  1  0
M  END
>  <cdk:Title>  (210) 
Sapogenol C

>  <1A2>  (210) 
N

>  <2A6>  (210) 
N

>  <2B6>  (210) 
N

>  <2C8>  (210) 
N

>  <2C9>  (210) 
N

>  <2C19>  (210) 
N

>  <2D6>  (210) 
N

>  <2E1>  (210) 
N

>  <3A4>  (210) 
N

>  <Citation>  (210) 
Nucleic Acids Res. 2018. Jan 4;46(D1):D608-17. PMID:29140435
Nucleic Acids Res. 2018 Jan 4;46(D1):D1074-D1082. PMID:29126136
Nucleic Acids Res., 45:D380-388 (2017).  PMID:27924025
Nucleic Acids Res. 2016 Jan 4;44(D1):D1202-13. PMID:26400175

>  <ROMol>  (210) 
<rdkit.Chem.rdchem.Mol object at 0x7c2905d003c0>

>  <Drug_like>  (210) 
True

$$$$
Anticopalic acid
     RDKit          2D

 22 23  0  0  0  0  0  0  0  0999 V2000
    4.5478    5.3421    0.0000 C   0  0  0  0  0  0  0  0  0  0  0  0
    5.0609    3.9327    0.0000 C   0  0  0  0  0  0  0  0  0  0  0  0
    6.5382    3.6723    0.0000 C   0  0  0  0  0  0  0  0  0  0  0  0
    7.0514    2.2629    0.0000 C   0  0  0  0  0  0  0  0  0  0  0  0
    6.0873    1.1137    0.0000 O   0  0  0  0  0  0  0  0  0  0  0  0
    8.5286    2.0026    0.0000 O   0  0  0  0  0  0  0  0  0  0  0  0
    3.4799    2.0480    0.0000 C   0  0  0  0  0  0  0  0  0  0  0  0
    0.5845    2.5582    0.0000 C   0  0  0  0  0  0  0  0  0  0  0  0
   -1.3051    0.3059    0.0000 C   0  0  0  0  0  0  0  0  0  0  0  0
   -0.0051   -0.4441    0.0000 C   0  0  0  0  0  0  0  0  0  0  0  0
    1.2939    0.3061    0.0000 C   0  0  0  0  0  0  0  0  0  0  0  0
   -0.0051   -1.9441    0.0000 C   0  0  0  0  0  0  0  0  0  0  0  0
   -1.3051   -2.6941    0.0000 C   0  0  0  0  0  0  0  0  0  0  0  0
   -2.6051   -1.9441    0.0000 C   0  0  0  0  0  0  0  0  0  0  0  0
   -3.9051   -2.6941    0.0000 C   0  0  0  0  0  0  0  0  0  0  0  0
   -5.7946   -4.9465    0.0000 C   0  0  0  0  0  0  0  0  0  0  0  0
   -2.6753   -4.8247    0.0000 C   0  0  0  0  0  0  0  0  0  0  0  0
   -5.2051   -1.9441    0.0000 C   0  0  0  0  0  0  0  0  0  0  0  0
   -5.2051   -0.4441    0.0000 C   0  0  0  0  0  0  0  0  0  0  0  0
   -3.9051    0.3059    0.0000 C   0  0  0  0  0  0  0  0  0  0  0  0
   -2.6051   -0.4441    0.0000 C   0  0  0  0  0  0  0  0  0  0  0  0
   -2.6051    2.4959    0.0000 C   0  0  0  0  0  0  0  0  0  0  0  0
  1  2  1  0
  2  3  2  0
  3  4  1  0
  4  5  2  0
  4  6  1  0
  2  7  1  0
  7  8  1  0
  8  9  1  0
  9 10  1  0
 10 11  2  0
 10 12  1  0
 12 13  1  0
 13 14  1  0
 14 15  1  0
 15 16  1  0
 15 17  1  0
 15 18  1  0
 18 19  1  0
 19 20  1  0
 20 21  1  0
  9 21  1  0
 14 21  1  0
 21 22  1  1
M  END
>  <cdk:Title>  (211) 
Anticopalic acid

>  <1A2>  (211) 
N

>  <2A6>  (211) 
N

>  <2B6>  (211) 
N

>  <2C8>  (211) 
N

>  <2C9>  (211) 
N

>  <2C19>  (211) 
N

>  <2D6>  (211) 
N

>  <2E1>  (211) 
N

>  <3A4>  (211) 
N

>  <Citation>  (211) 
Nucleic Acids Res. 2018. Jan 4;46(D1):D608-17. PMID:29140435
Nucleic Acids Res. 2018 Jan 4;46(D1):D1074-D1082. PMID:29126136
Nucleic Acids Res., 45:D380-388 (2017).  PMID:27924025
Nucleic Acids Res. 2016 Jan 4;44(D1):D1202-13. PMID:26400175

>  <ROMol>  (211) 
<rdkit.Chem.rdchem.Mol object at 0x7c2905d004a0>

>  <Drug_like>  (211) 
True

$$$$
82863-40-9
     RDKit          2D

 10  9  0  0  0  0  0  0  0  0999 V2000
    0.8833   -0.5100    0.0000 O   0  0  0  0  0  0  0  0  0  0  0  0
    2.1824    0.2400    0.0000 C   0  0  0  0  0  0  0  0  0  0  0  0
    2.1824    1.7400    0.0000 O   0  0  0  0  0  0  0  0  0  0  0  0
    3.4814   -0.5100    0.0000 C   0  0  0  0  0  0  0  0  0  0  0  0
    4.4456   -1.6591    0.0000 N   0  0  0  0  0  0  0  0  0  0  0  0
    4.7805    0.2400    0.0000 C   0  0  0  0  0  0  0  0  0  0  0  0
    6.4952   -0.7500    0.0000 N   0  0  0  0  0  0  0  0  0  0  0  0
    7.7942   -0.0000    0.0000 N   0  0  0  0  0  0  0  0  0  0  0  0
    9.0933   -0.7500    0.0000 O   0  0  0  0  0  0  0  0  0  0  0  0
    7.7942    1.5000    0.0000 O   0  0  0  0  0  0  0  0  0  0  0  0
  1  2  1  0
  2  3  2  0
  2  4  1  0
  4  5  1  0
  4  6  1  0
  6  7  1  0
  7  8  1  0
  8  9  1  0
  8 10  2  0
M  CHG  2   8   1   9  -1
M  END
>  <cdk:Title>  (212) 
82863-40-9

>  <1A2>  (212) 
N

>  <2A6>  (212) 
N

>  <2B6>  (212) 
N

>  <2C8>  (212) 
N

>  <2C9>  (212) 
N

>  <2C19>  (212) 
N

>  <2D6>  (212) 
N

>  <2E1>  (212) 
N

>  <3A4>  (212) 
N

>  <Citation>  (212) 
Nucleic Acids Res. 2018. Jan 4;46(D1):D608-17. PMID:29140435
Nucleic Acids Res. 2018 Jan 4;46(D1):D1074-D1082. PMID:29126136
Nucleic Acids Res., 45:D380-388 (2017).  PMID:27924025
Nucleic Acids Res. 2016 Jan 4;44(D1):D1202-13. PMID:26400175

>  <ROMol>  (212) 
<rdkit.Chem.rdchem.Mol object at 0x7c2905d005f0>

>  <Drug_like>  (212) 
True

$$$$
(5S)-3-[(2R)-2-Hydroxy-14-[(2S_5S)-5-[(1S)-1_7_8-trihydroxydodec-4-en-1-yl]oxola
     RDKit          2D

 42 43  0  0  0  0  0  0  0  0999 V2000
  -12.9502   -8.7966    0.0000 C   0  0  0  0  0  0  0  0  0  0  0  0
  -14.4502   -8.7946    0.0000 C   0  0  0  0  0  0  0  0  0  0  0  0
  -14.9120  -10.2240    0.0000 C   0  0  0  0  0  0  0  0  0  0  0  0
  -13.7032  -11.1056    0.0000 O   0  0  0  0  0  0  0  0  0  0  0  0
  -12.4920  -10.2272    0.0000 C   0  0  0  0  0  0  0  0  0  0  0  0
   -9.8025   -9.0397    0.0000 C   0  0  0  0  0  0  0  0  0  0  0  0
   -7.8168  -10.4919    0.0000 C   0  0  0  0  0  0  0  0  0  0  0  0
   -5.5664   -9.4983    0.0000 C   0  0  0  0  0  0  0  0  0  0  0  0
   -3.5807  -10.9505    0.0000 C   0  0  0  0  0  0  0  0  0  0  0  0
   -1.3303   -9.9569    0.0000 C   0  0  0  0  0  0  0  0  0  0  0  0
    0.2679  -11.1257    0.0000 C   0  0  0  0  0  0  0  0  0  0  0  0
    2.5183  -10.1321    0.0000 C   0  0  0  0  0  0  0  0  0  0  0  0
    4.1165  -11.3010    0.0000 C   0  0  0  0  0  0  0  0  0  0  0  0
    5.9279  -10.5013    0.0000 C   0  0  0  0  0  0  0  0  0  0  0  0
    7.5261  -11.6701    0.0000 C   0  0  0  0  0  0  0  0  0  0  0  0
    9.3374  -10.8704    0.0000 C   0  0  0  0  0  0  0  0  0  0  0  0
   10.9356  -12.0392    0.0000 C   0  0  0  0  0  0  0  0  0  0  0  0
   12.7469  -11.2395    0.0000 C   0  0  0  0  0  0  0  0  0  0  0  0
   13.9577  -12.1249    0.0000 C   0  0  0  0  0  0  0  0  0  0  0  0
   15.3299  -11.5191    0.0000 C   0  0  0  0  0  0  0  0  0  0  0  0
   16.6270  -12.2726    0.0000 C   0  0  0  0  0  0  0  0  0  0  0  0
   17.7380  -11.2758    0.0000 C   0  0  0  0  0  0  0  0  0  0  0  0
   17.1388   -9.8984    0.0000 O   0  0  0  0  0  0  0  0  0  0  0  0
   15.6455  -10.0602    0.0000 C   0  0  0  0  0  0  0  0  0  0  0  0
   14.6420   -8.9453    0.0000 O   0  0  0  0  0  0  0  0  0  0  0  0
   19.0417  -10.5340    0.0000 C   0  0  0  0  0  0  0  0  0  0  0  0
   11.9120   -9.9933    0.0000 O   0  0  0  0  0  0  0  0  0  0  0  0
  -15.6629  -11.5225    0.0000 C   0  0  0  0  0  0  0  0  0  0  0  0
  -17.6429  -11.5212    0.0000 C   0  0  0  0  0  0  0  0  0  0  0  0
  -18.6340  -13.2353    0.0000 C   0  0  0  0  0  0  0  0  0  0  0  0
  -21.0940  -13.2337    0.0000 C   0  0  0  0  0  0  0  0  0  0  0  0
  -22.3226  -11.1024    0.0000 C   0  0  0  0  0  0  0  0  0  0  0  0
  -21.5718   -9.8039    0.0000 C   0  0  0  0  0  0  0  0  0  0  0  0
  -22.3209   -8.5044    0.0000 C   0  0  0  0  0  0  0  0  0  0  0  0
  -24.3009   -8.5031    0.0000 C   0  0  0  0  0  0  0  0  0  0  0  0
  -25.5295   -6.3718    0.0000 C   0  0  0  0  0  0  0  0  0  0  0  0
  -28.4695   -6.3699    0.0000 C   0  0  0  0  0  0  0  0  0  0  0  0
  -29.2186   -5.0703    0.0000 C   0  0  0  0  0  0  0  0  0  0  0  0
  -30.7186   -5.0694    0.0000 C   0  0  0  0  0  0  0  0  0  0  0  0
  -25.7108   -9.0152    0.0000 O   0  0  0  0  0  0  0  0  0  0  0  0
  -20.9110   -7.9923    0.0000 O   0  0  0  0  0  0  0  0  0  0  0  0
  -14.2537  -12.0365    0.0000 O   0  0  0  0  0  0  0  0  0  0  0  0
  1  2  1  0
  2  3  1  0
  3  4  1  0
  4  5  1  0
  1  5  1  0
  5  6  1  0
  6  7  1  0
  7  8  1  0
  8  9  1  0
  9 10  1  0
 10 11  1  0
 11 12  1  0
 12 13  1  0
 13 14  1  0
 14 15  1  0
 15 16  1  0
 16 17  1  0
 17 18  1  0
 18 19  1  0
 19 20  1  0
 20 21  2  0
 21 22  1  0
 22 23  1  0
 23 24  1  0
 20 24  1  0
 24 25  2  0
 22 26  1  0
 18 27  1  0
  3 28  1  0
 28 29  1  0
 29 30  1  0
 30 31  1  0
 31 32  2  0
 32 33  1  0
 33 34  1  0
 34 35  1  0
 35 36  1  0
 36 37  1  0
 37 38  1  0
 38 39  1  0
 35 40  1  0
 34 41  1  0
 28 42  1  0
M  END
>  <cdk:Title>  (213) 
(5S)-3-[(2R)-2-Hydroxy-14-[(2S_5S)-5-[(1S)-1_7_8-trihydroxydodec-4-en-1-yl]oxolan-2-yl]tetradecyl]-5-methyl-2_5-dihydrofuran-2-one

>  <1A2>  (213) 
N

>  <2A6>  (213) 
N

>  <2B6>  (213) 
N

>  <2C8>  (213) 
N

>  <2C9>  (213) 
N

>  <2C19>  (213) 
N

>  <2D6>  (213) 
N

>  <2E1>  (213) 
N

>  <3A4>  (213) 
N

>  <Citation>  (213) 
Nucleic Acids Res. 2018. Jan 4;46(D1):D608-17. PMID:29140435
Nucleic Acids Res. 2018 Jan 4;46(D1):D1074-D1082. PMID:29126136
Nucleic Acids Res., 45:D380-388 (2017).  PMID:27924025
Nucleic Acids Res. 2016 Jan 4;44(D1):D1202-13. PMID:26400175

>  <ROMol>  (213) 
<rdkit.Chem.rdchem.Mol object at 0x7c2905d006d0>

>  <Drug_like>  (213) 
True

$$$$
Isoglabrolide
     RDKit          2D

 34 39  0  0  0  0  0  0  0  0999 V2000
    9.0241   -3.7527    0.0000 C   0  0  0  0  0  0  0  0  0  0  0  0
   10.6062   -1.8689    0.0000 C   0  0  0  0  0  0  0  0  0  0  0  0
   11.5699   -3.0184    0.0000 C   0  0  0  0  0  0  0  0  0  0  0  0
    9.3075   -1.1183    0.0000 C   0  0  0  0  0  0  0  0  0  0  0  0
    8.0082   -1.8678    0.0000 C   0  0  0  0  0  0  0  0  0  0  0  0
    6.7094   -1.1172    0.0000 C   0  0  0  0  0  0  0  0  0  0  0  0
    6.7101    0.3828    0.0000 C   0  0  0  0  0  0  0  0  0  0  0  0
    4.8492   -0.2936    0.0000 C   0  0  0  0  0  0  0  0  0  0  0  0
    8.0095    1.1322    0.0000 C   0  0  0  0  0  0  0  0  0  0  0  0
    8.0101    2.6323    0.0000 C   0  0  0  0  0  0  0  0  0  0  0  0
    6.7113    3.3828    0.0000 C   0  0  0  0  0  0  0  0  0  0  0  0
    5.4120    2.6333    0.0000 C   0  0  0  0  0  0  0  0  0  0  0  0
    5.4114    1.1334    0.0000 C   0  0  0  0  0  0  0  0  0  0  0  0
    5.4108   -0.3666    0.0000 C   0  0  0  0  0  0  0  0  0  0  0  0
    4.1122    0.3839    0.0000 C   0  0  0  0  0  0  0  0  0  0  0  0
    2.8135    1.1341    0.0000 C   0  0  0  0  0  0  0  0  0  0  0  0
    2.8135    2.6341    0.0000 C   0  0  0  0  0  0  0  0  0  0  0  0
    0.2676    1.1637    0.0000 C   0  0  0  0  0  0  0  0  0  0  0  0
    1.5135    3.3841    0.0000 C   0  0  0  0  0  0  0  0  0  0  0  0
    1.5135    4.8841    0.0000 C   0  0  0  0  0  0  0  0  0  0  0  0
    2.8135    5.6341    0.0000 C   0  0  0  0  0  0  0  0  0  0  0  0
    4.3127    5.6825    0.0000 C   0  0  0  0  0  0  0  0  0  0  0  0
    4.1135    4.8841    0.0000 C   0  0  0  0  0  0  0  0  0  0  0  0
    4.1135    3.3841    0.0000 C   0  0  0  0  0  0  0  0  0  0  0  0
    2.6335    3.6041    0.0000 O   0  0  0  0  0  0  0  0  0  0  0  0
    2.1135    4.5941    0.0000 C   0  0  0  0  0  0  0  0  0  0  0  0
    0.6157    4.6756    0.0000 O   0  0  0  0  0  0  0  0  0  0  0  0
    9.3094    3.3817    0.0000 O   0  0  0  0  0  0  0  0  0  0  0  0
    9.3082    0.3817    0.0000 C   0  0  0  0  0  0  0  0  0  0  0  0
    9.3090    2.3617    0.0000 C   0  0  0  0  0  0  0  0  0  0  0  0
   10.6075    1.1311    0.0000 C   0  0  0  0  0  0  0  0  0  0  0  0
   11.9062    0.3805    0.0000 C   0  0  0  0  0  0  0  0  0  0  0  0
   11.9056   -1.1195    0.0000 C   0  0  0  0  0  0  0  0  0  0  0  0
   12.4180   -2.5292    0.0000 O   0  0  0  0  0  0  0  0  0  0  0  0
  1  2  1  0
  2  3  1  0
  2  4  1  0
  4  5  1  0
  5  6  1  0
  6  7  1  0
  7  8  1  1
  7  9  1  0
  9 10  1  0
 10 11  1  0
 11 12  2  0
 12 13  1  0
  7 13  1  0
 13 14  1  1
 13 15  1  0
 15 16  1  0
 16 17  1  0
 17 18  1  6
 17 19  1  0
 19 20  1  0
 20 21  1  0
 21 22  1  1
 21 23  1  0
 23 24  1  0
 12 24  1  0
 17 24  1  0
 24 25  1  1
 25 26  1  0
 21 26  1  0
 26 27  2  0
 10 28  2  0
  9 29  1  0
  4 29  1  0
 29 30  1  6
 29 31  1  0
 31 32  1  0
 32 33  1  0
  2 33  1  0
 33 34  1  0
M  END
>  <cdk:Title>  (214) 
Isoglabrolide

>  <1A2>  (214) 
N

>  <2A6>  (214) 
N

>  <2B6>  (214) 
N

>  <2C8>  (214) 
N

>  <2C9>  (214) 
N

>  <2C19>  (214) 
N

>  <2D6>  (214) 
N

>  <2E1>  (214) 
N

>  <3A4>  (214) 
N

>  <Citation>  (214) 
Nucleic Acids Res. 2018. Jan 4;46(D1):D608-17. PMID:29140435
Nucleic Acids Res. 2018 Jan 4;46(D1):D1074-D1082. PMID:29126136
Nucleic Acids Res., 45:D380-388 (2017).  PMID:27924025
Nucleic Acids Res. 2016 Jan 4;44(D1):D1202-13. PMID:26400175

>  <ROMol>  (214) 
<rdkit.Chem.rdchem.Mol object at 0x7c2905d00740>

>  <Drug_like>  (214) 
True

$$$$
CPA(18:2(9Z_12Z)/0:0)
     RDKit          2D

 28 28  0  0  0  0  0  0  0  0999 V2000
    7.3006  -17.2510    0.0000 C   0  0  0  0  0  0  0  0  0  0  0  0
    8.5997  -18.0010    0.0000 C   0  0  0  0  0  0  0  0  0  0  0  0
    9.7080  -17.0013    0.0000 O   0  0  0  0  0  0  0  0  0  0  0  0
    9.1051  -15.6255    0.0000 P   0  0  0  0  0  0  0  0  0  0  0  0
    7.6123  -15.7913    0.0000 O   0  0  0  0  0  0  0  0  0  0  0  0
   10.5326  -15.1648    0.0000 O   0  0  0  0  0  0  0  0  0  0  0  0
    8.7904  -14.1589    0.0000 O   0  0  0  0  0  0  0  0  0  0  0  0
    7.4363  -19.6032    0.0000 C   0  0  0  0  0  0  0  0  0  0  0  0
    5.9445  -19.4469    0.0000 O   0  0  0  0  0  0  0  0  0  0  0  0
    5.0632  -20.6606    0.0000 C   0  0  0  0  0  0  0  0  0  0  0  0
    3.5713  -20.5043    0.0000 C   0  0  0  0  0  0  0  0  0  0  0  0
    2.4080  -22.1065    0.0000 C   0  0  0  0  0  0  0  0  0  0  0  0
    0.4388  -21.9001    0.0000 C   0  0  0  0  0  0  0  0  0  0  0  0
   -0.7246  -23.5023    0.0000 C   0  0  0  0  0  0  0  0  0  0  0  0
   -2.6938  -23.2959    0.0000 C   0  0  0  0  0  0  0  0  0  0  0  0
   -3.5751  -24.5097    0.0000 C   0  0  0  0  0  0  0  0  0  0  0  0
   -5.0669  -24.3533    0.0000 C   0  0  0  0  0  0  0  0  0  0  0  0
   -5.6774  -22.9832    0.0000 C   0  0  0  0  0  0  0  0  0  0  0  0
   -7.1693  -22.8268    0.0000 C   0  0  0  0  0  0  0  0  0  0  0  0
   -8.0506  -24.0406    0.0000 C   0  0  0  0  0  0  0  0  0  0  0  0
   -7.4401  -25.4108    0.0000 C   0  0  0  0  0  0  0  0  0  0  0  0
   -8.3214  -26.6246    0.0000 C   0  0  0  0  0  0  0  0  0  0  0  0
  -11.2454  -26.3181    0.0000 C   0  0  0  0  0  0  0  0  0  0  0  0
  -12.0512  -24.5095    0.0000 C   0  0  0  0  0  0  0  0  0  0  0  0
  -14.4978  -24.2531    0.0000 C   0  0  0  0  0  0  0  0  0  0  0  0
  -15.1084  -22.8830    0.0000 C   0  0  0  0  0  0  0  0  0  0  0  0
  -16.6002  -22.7266    0.0000 C   0  0  0  0  0  0  0  0  0  0  0  0
    5.6737  -22.0308    0.0000 O   0  0  0  0  0  0  0  0  0  0  0  0
  1  2  1  0
  2  3  1  0
  3  4  1  0
  4  5  1  0
  1  5  1  0
  4  6  2  0
  4  7  1  0
  2  8  1  0
  8  9  1  0
  9 10  1  0
 10 11  1  0
 11 12  1  0
 12 13  1  0
 13 14  1  0
 14 15  1  0
 15 16  1  0
 16 17  1  0
 17 18  1  0
 18 19  2  0
 19 20  1  0
 20 21  1  0
 21 22  2  0
 22 23  1  0
 23 24  1  0
 24 25  1  0
 25 26  1  0
 26 27  1  0
 10 28  2  0
M  END
>  <cdk:Title>  (215) 
CPA(18:2(9Z_12Z)/0:0)

>  <1A2>  (215) 
N

>  <2A6>  (215) 
N

>  <2B6>  (215) 
N

>  <2C8>  (215) 
N

>  <2C9>  (215) 
N

>  <2C19>  (215) 
N

>  <2D6>  (215) 
N

>  <2E1>  (215) 
N

>  <3A4>  (215) 
N

>  <Citation>  (215) 
Nucleic Acids Res. 2018. Jan 4;46(D1):D608-17. PMID:29140435
Nucleic Acids Res. 2018 Jan 4;46(D1):D1074-D1082. PMID:29126136
Nucleic Acids Res., 45:D380-388 (2017).  PMID:27924025
Nucleic Acids Res. 2016 Jan 4;44(D1):D1202-13. PMID:26400175

>  <ROMol>  (215) 
<rdkit.Chem.rdchem.Mol object at 0x7c2905d00890>

>  <Drug_like>  (215) 
True

$$$$
Dimethyl (1R*_2S*_3S*)-2-carboxy-3-(3_4-dihydroxyphenyl)-2_3-dihydro-5_6-dihydro
     RDKit          2D

 28 30  0  0  0  0  0  0  0  0999 V2000
   -3.0825    0.8315    0.0000 C   0  0  0  0  0  0  0  0  0  0  0  0
   -1.7825    1.5815    0.0000 C   0  0  0  0  0  0  0  0  0  0  0  0
   -0.4825    0.8315    0.0000 C   0  0  0  0  0  0  0  0  0  0  0  0
   -0.4825   -0.6685    0.0000 C   0  0  0  0  0  0  0  0  0  0  0  0
   -1.7825   -1.4185    0.0000 C   0  0  0  0  0  0  0  0  0  0  0  0
   -3.0825   -0.6685    0.0000 C   0  0  0  0  0  0  0  0  0  0  0  0
   -4.3814   -1.4187    0.0000 O   0  0  0  0  0  0  0  0  0  0  0  0
    0.9475   -1.1285    0.0000 C   0  0  0  0  0  0  0  0  0  0  0  0
    1.8275    0.0815    0.0000 C   0  0  0  0  0  0  0  0  0  0  0  0
    0.9475    1.2915    0.0000 C   0  0  0  0  0  0  0  0  0  0  0  0
    2.6629    2.2804    0.0000 C   0  0  0  0  0  0  0  0  0  0  0  0
    3.9619    1.5287    0.0000 C   0  0  0  0  0  0  0  0  0  0  0  0
    5.2614    2.2778    0.0000 C   0  0  0  0  0  0  0  0  0  0  0  0
    5.2619    3.7787    0.0000 C   0  0  0  0  0  0  0  0  0  0  0  0
    3.9629    4.5304    0.0000 C   0  0  0  0  0  0  0  0  0  0  0  0
    2.6634    3.7812    0.0000 C   0  0  0  0  0  0  0  0  0  0  0  0
    3.9641    6.0304    0.0000 O   0  0  0  0  0  0  0  0  0  0  0  0
    6.5615    4.5278    0.0000 O   0  0  0  0  0  0  0  0  0  0  0  0
    3.2987   -1.2436    0.0000 C   0  0  0  0  0  0  0  0  0  0  0  0
    2.9866   -2.7108    0.0000 O   0  0  0  0  0  0  0  0  0  0  0  0
    4.7254   -0.7803    0.0000 O   0  0  0  0  0  0  0  0  0  0  0  0
    5.8399   -1.7842    0.0000 C   0  0  0  0  0  0  0  0  0  0  0  0
    0.3398   -2.4999    0.0000 C   0  0  0  0  0  0  0  0  0  0  0  0
    1.2237   -3.7118    0.0000 C   0  0  0  0  0  0  0  0  0  0  0  0
    2.7152   -3.5524    0.0000 O   0  0  0  0  0  0  0  0  0  0  0  0
    0.6161   -5.0833    0.0000 O   0  0  0  0  0  0  0  0  0  0  0  0
    1.4999   -6.2952    0.0000 C   0  0  0  0  0  0  0  0  0  0  0  0
   -4.3814    1.5817    0.0000 O   0  0  0  0  0  0  0  0  0  0  0  0
  1  2  2  0
  2  3  1  0
  3  4  2  0
  4  5  1  0
  5  6  2  0
  1  6  1  0
  6  7  1  0
  4  8  1  0
  8  9  1  0
  9 10  1  0
  3 10  1  0
 10 11  1  0
 11 12  2  0
 12 13  1  0
 13 14  2  0
 14 15  1  0
 15 16  2  0
 11 16  1  0
 15 17  1  0
 14 18  1  0
  9 19  1  0
 19 20  2  0
 19 21  1  0
 21 22  1  0
  8 23  1  0
 23 24  1  0
 24 25  2  0
 24 26  1  0
 26 27  1  0
  1 28  1  0
M  END
>  <cdk:Title>  (216) 
Dimethyl (1R*_2S*_3S*)-2-carboxy-3-(3_4-dihydroxyphenyl)-2_3-dihydro-5_6-dihydroxy-1H-indene-1-acetate

>  <1A2>  (216) 
N

>  <2A6>  (216) 
N

>  <2B6>  (216) 
N

>  <2C8>  (216) 
N

>  <2C9>  (216) 
N

>  <2C19>  (216) 
N

>  <2D6>  (216) 
N

>  <2E1>  (216) 
N

>  <3A4>  (216) 
N

>  <Citation>  (216) 
Nucleic Acids Res. 2018. Jan 4;46(D1):D608-17. PMID:29140435
Nucleic Acids Res. 2018 Jan 4;46(D1):D1074-D1082. PMID:29126136
Nucleic Acids Res., 45:D380-388 (2017).  PMID:27924025
Nucleic Acids Res. 2016 Jan 4;44(D1):D1202-13. PMID:26400175

>  <ROMol>  (216) 
<rdkit.Chem.rdchem.Mol object at 0x7c2905d00970>

>  <Drug_like>  (216) 
True

$$$$
Cinncassiol D4 2-glucoside
     RDKit          2D

 36 41  0  0  0  0  0  0  0  0999 V2000
   -7.5889    2.8582    0.0000 O   0  0  0  0  0  0  0  0  0  0  0  0
   -2.1862    3.2353    0.0000 C   0  0  0  0  0  0  0  0  0  0  0  0
   -1.0374    4.5649    0.0000 C   0  0  0  0  0  0  0  0  0  0  0  0
    0.3904    5.0471    0.0000 C   0  0  0  0  0  0  0  0  0  0  0  0
    3.3247    5.2287    0.0000 C   0  0  0  0  0  0  0  0  0  0  0  0
    0.4927    6.5036    0.0000 C   0  0  0  0  0  0  0  0  0  0  0  0
    1.0877    8.3921    0.0000 O   0  0  0  0  0  0  0  0  0  0  0  0
    2.5520    8.7171    0.0000 C   0  0  0  0  0  0  0  0  0  0  0  0
    4.0582    8.5263    0.0000 O   0  0  0  0  0  0  0  0  0  0  0  0
    4.9747    9.7148    0.0000 C   0  0  0  0  0  0  0  0  0  0  0  0
    5.9855    8.6065    0.0000 C   0  0  0  0  0  0  0  0  0  0  0  0
    7.4507    8.9279    0.0000 O   0  0  0  0  0  0  0  0  0  0  0  0
    4.4073   11.0925    0.0000 C   0  0  0  0  0  0  0  0  0  0  0  0
    5.8730   11.4115    0.0000 O   0  0  0  0  0  0  0  0  0  0  0  0
    2.9159   11.3003    0.0000 C   0  0  0  0  0  0  0  0  0  0  0  0
    1.9847   10.0949    0.0000 C   0  0  0  0  0  0  0  0  0  0  0  0
    0.9745   11.2037    0.0000 O   0  0  0  0  0  0  0  0  0  0  0  0
    3.3756   12.7281    0.0000 O   0  0  0  0  0  0  0  0  0  0  0  0
   -0.8389    7.1026    0.0000 C   0  0  0  0  0  0  0  0  0  0  0  0
   -1.9393    6.0730    0.0000 C   0  0  0  0  0  0  0  0  0  0  0  0
   -2.4689    7.4764    0.0000 O   0  0  0  0  0  0  0  0  0  0  0  0
   -4.1626    6.1408    0.0000 C   0  0  0  0  0  0  0  0  0  0  0  0
   -3.5280    4.7816    0.0000 C   0  0  0  0  0  0  0  0  0  0  0  0
   -2.8491    2.4457    0.0000 C   0  0  0  0  0  0  0  0  0  0  0  0
   -4.5273    1.6622    0.0000 C   0  0  0  0  0  0  0  0  0  0  0  0
   -3.6204   -1.1344    0.0000 C   0  0  0  0  0  0  0  0  0  0  0  0
   -4.6247   -2.2485    0.0000 C   0  0  0  0  0  0  0  0  0  0  0  0
   -2.2955   -0.4310    0.0000 C   0  0  0  0  0  0  0  0  0  0  0  0
   -5.8822    3.6825    0.0000 C   0  0  0  0  0  0  0  0  0  0  0  0
   -7.9601    1.6027    0.0000 C   0  0  0  0  0  0  0  0  0  0  0  0
   -4.3878    3.5525    0.0000 C   0  0  0  0  0  0  0  0  0  0  0  0
   -4.8160    2.1149    0.0000 O   0  0  0  0  0  0  0  0  0  0  0  0
   -6.5167    5.0417    0.0000 C   0  0  0  0  0  0  0  0  0  0  0  0
   -5.6569    6.2708    0.0000 C   0  0  0  0  0  0  0  0  0  0  0  0
   -8.0111    5.1717    0.0000 O   0  0  0  0  0  0  0  0  0  0  0  0
   -3.9902    9.0757    0.0000 C   0  0  0  0  0  0  0  0  0  0  0  0
  1  2  1  0
  2  3  1  0
  3  4  1  0
  4  5  1  0
  4  6  1  0
  6  7  1  0
  7  8  1  0
  8  9  1  0
  9 10  1  0
 10 11  1  0
 11 12  1  0
 10 13  1  0
 13 14  1  0
 13 15  1  0
 15 16  1  0
  8 16  1  0
 16 17  1  0
 15 18  1  0
  6 19  1  0
 19 20  1  0
  3 20  1  0
 20 21  1  1
 20 22  1  0
 22 23  1  0
 23 24  1  0
 24 25  1  0
 25 26  1  0
 26 27  1  0
 26 28  1  0
 25 29  1  0
 29 30  1  1
 29 31  1  0
  2 31  1  0
 23 31  1  0
 31 32  1  6
 29 33  1  0
  1 33  1  0
 33 34  1  0
 22 34  1  0
 33 35  1  6
 22 36  1  6
M  END
>  <cdk:Title>  (217) 
Cinncassiol D4 2-glucoside

>  <1A2>  (217) 
N

>  <2A6>  (217) 
N

>  <2B6>  (217) 
N

>  <2C8>  (217) 
N

>  <2C9>  (217) 
N

>  <2C19>  (217) 
N

>  <2D6>  (217) 
N

>  <2E1>  (217) 
N

>  <3A4>  (217) 
N

>  <Citation>  (217) 
Nucleic Acids Res. 2018. Jan 4;46(D1):D608-17. PMID:29140435
Nucleic Acids Res. 2018 Jan 4;46(D1):D1074-D1082. PMID:29126136
Nucleic Acids Res., 45:D380-388 (2017).  PMID:27924025
Nucleic Acids Res. 2016 Jan 4;44(D1):D1202-13. PMID:26400175

>  <ROMol>  (217) 
<rdkit.Chem.rdchem.Mol object at 0x7c2905d00ac0>

>  <Drug_like>  (217) 
True

$$$$
Momilactone C
     RDKit          2D

 23 26  0  0  0  0  0  0  0  0999 V2000
    4.5611    1.5125    0.0000 C   0  0  0  0  0  0  0  0  0  0  0  0
    3.5971    0.3633    0.0000 C   0  0  0  0  0  0  0  0  0  0  0  0
    1.1744    0.7903    0.0000 C   0  0  0  0  0  0  0  0  0  0  0  0
    2.1793    3.5532    0.0000 C   0  0  0  0  0  0  0  0  0  0  0  0
   -0.1256    1.5403    0.0000 C   0  0  0  0  0  0  0  0  0  0  0  0
   -1.4256    0.7903    0.0000 C   0  0  0  0  0  0  0  0  0  0  0  0
   -1.4256   -0.7097    0.0000 C   0  0  0  0  0  0  0  0  0  0  0  0
   -0.1256   -1.4697    0.0000 C   0  0  0  0  0  0  0  0  0  0  0  0
   -0.1256   -2.9597    0.0000 C   0  0  0  0  0  0  0  0  0  0  0  0
   -1.4256   -3.7097    0.0000 C   0  0  0  0  0  0  0  0  0  0  0  0
   -2.7256   -2.9597    0.0000 C   0  0  0  0  0  0  0  0  0  0  0  0
   -2.7256   -1.4697    0.0000 C   0  0  0  0  0  0  0  0  0  0  0  0
   -2.7256    1.4703    0.0000 C   0  0  0  0  0  0  0  0  0  0  0  0
   -4.0256   -0.7097    0.0000 C   0  0  0  0  0  0  0  0  0  0  0  0
   -5.3256   -1.4697    0.0000 C   0  0  0  0  0  0  0  0  0  0  0  0
   -5.3256   -2.9597    0.0000 C   0  0  0  0  0  0  0  0  0  0  0  0
   -4.0256   -3.7097    0.0000 C   0  0  0  0  0  0  0  0  0  0  0  0
   -6.3569   -5.5010    0.0000 C   0  0  0  0  0  0  0  0  0  0  0  0
   -3.6356   -5.1597    0.0000 C   0  0  0  0  0  0  0  0  0  0  0  0
   -4.5482   -6.3502    0.0000 O   0  0  0  0  0  0  0  0  0  0  0  0
   -1.8156   -5.1597    0.0000 O   0  0  0  0  0  0  0  0  0  0  0  0
   -5.8437   -0.0621    0.0000 O   0  0  0  0  0  0  0  0  0  0  0  0
    1.1744   -0.7097    0.0000 C   0  0  0  0  0  0  0  0  0  0  0  0
  1  2  2  0
  3  2  1  0
  3  4  1  6
  3  5  1  0
  5  6  1  0
  6  7  1  0
  7  8  1  0
  8  9  2  0
  9 10  1  0
 10 11  1  0
 11 12  1  0
  7 12  1  0
 12 13  1  6
 12 14  1  0
 14 15  1  0
 15 16  1  0
 16 17  1  0
 11 17  1  0
 17 18  1  1
 17 19  1  0
 19 20  2  0
 19 21  1  0
 10 21  1  0
 15 22  1  0
  8 23  1  0
  3 23  1  0
M  END
>  <cdk:Title>  (218) 
Momilactone C

>  <1A2>  (218) 
N

>  <2A6>  (218) 
N

>  <2B6>  (218) 
N

>  <2C8>  (218) 
N

>  <2C9>  (218) 
N

>  <2C19>  (218) 
N

>  <2D6>  (218) 
N

>  <2E1>  (218) 
N

>  <3A4>  (218) 
N

>  <Citation>  (218) 
Nucleic Acids Res. 2018. Jan 4;46(D1):D608-17. PMID:29140435
Nucleic Acids Res. 2018 Jan 4;46(D1):D1074-D1082. PMID:29126136
Nucleic Acids Res., 45:D380-388 (2017).  PMID:27924025
Nucleic Acids Res. 2016 Jan 4;44(D1):D1202-13. PMID:26400175

>  <ROMol>  (218) 
<rdkit.Chem.rdchem.Mol object at 0x7c2905d00e40>

>  <Drug_like>  (218) 
True

$$$$
(2R_3S_4R_5R_6R)-2-(Hydroxymethyl)-6-{[(1R_4S_5S_8R_9R_12S_16S_19R)-19-methoxy-8
     RDKit          2D

 47 52  0  0  0  0  0  0  0  0999 V2000
   -4.8015    1.0972    0.0000 C   0  0  0  0  0  0  0  0  0  0  0  0
   -3.6525    2.0614    0.0000 C   0  0  0  0  0  0  0  0  0  0  0  0
   -3.9129    3.5386    0.0000 C   0  0  0  0  0  0  0  0  0  0  0  0
   -5.3225    4.0516    0.0000 C   0  0  0  0  0  0  0  0  0  0  0  0
   -6.4716    3.0875    0.0000 C   0  0  0  0  0  0  0  0  0  0  0  0
   -6.2111    1.6103    0.0000 C   0  0  0  0  0  0  0  0  0  0  0  0
   -7.7436    3.8823    0.0000 C   0  0  0  0  0  0  0  0  0  0  0  0
   -8.1416    5.0777    0.0000 C   0  0  0  0  0  0  0  0  0  0  0  0
   -6.9925    6.0419    0.0000 C   0  0  0  0  0  0  0  0  0  0  0  0
   -5.5830    5.5289    0.0000 C   0  0  0  0  0  0  0  0  0  0  0  0
   -9.5511    5.5907    0.0000 C   0  0  0  0  0  0  0  0  0  0  0  0
  -10.7002    4.6266    0.0000 C   0  0  0  0  0  0  0  0  0  0  0  0
  -10.4397    3.1493    0.0000 C   0  0  0  0  0  0  0  0  0  0  0  0
   -9.0302    2.6363    0.0000 C   0  0  0  0  0  0  0  0  0  0  0  0
  -11.9722    5.4214    0.0000 C   0  0  0  0  0  0  0  0  0  0  0  0
  -11.6094    6.8769    0.0000 C   0  0  0  0  0  0  0  0  0  0  0  0
  -10.1130    6.9815    0.0000 C   0  0  0  0  0  0  0  0  0  0  0  0
  -12.6298    4.0732    0.0000 C   0  0  0  0  0  0  0  0  0  0  0  0
  -11.1879    3.6598    0.0000 C   0  0  0  0  0  0  0  0  0  0  0  0
  -15.5626    3.8682    0.0000 C   0  0  0  0  0  0  0  0  0  0  0  0
  -16.2202    2.5200    0.0000 C   0  0  0  0  0  0  0  0  0  0  0  0
  -18.6742    2.3484    0.0000 C   0  0  0  0  0  0  0  0  0  0  0  0
  -19.3318    1.0002    0.0000 C   0  0  0  0  0  0  0  0  0  0  0  0
  -19.4886   -0.4916    0.0000 C   0  0  0  0  0  0  0  0  0  0  0  0
  -17.8899    0.5867    0.0000 C   0  0  0  0  0  0  0  0  0  0  0  0
  -20.8281    0.8955    0.0000 O   0  0  0  0  0  0  0  0  0  0  0  0
  -21.6669    2.1391    0.0000 C   0  0  0  0  0  0  0  0  0  0  0  0
  -13.1375    2.9825    0.0000 C   0  0  0  0  0  0  0  0  0  0  0  0
   -7.8422    7.3603    0.0000 C   0  0  0  0  0  0  0  0  0  0  0  0
   -7.3807    5.3378    0.0000 C   0  0  0  0  0  0  0  0  0  0  0  0
   -5.8844    5.4424    0.0000 O   0  0  0  0  0  0  0  0  0  0  0  0
   -8.8661    5.5465    0.0000 O   0  0  0  0  0  0  0  0  0  0  0  0
   -9.9675    8.2725    0.0000 C   0  0  0  0  0  0  0  0  0  0  0  0
   -3.4024    6.4339    0.0000 C   0  0  0  0  0  0  0  0  0  0  0  0
   -2.4129    3.5386    0.0000 C   0  0  0  0  0  0  0  0  0  0  0  0
   -1.3408    2.9028    0.0000 O   0  0  0  0  0  0  0  0  0  0  0  0
    0.9113    1.0130    0.0000 C   0  0  0  0  0  0  0  0  0  0  0  0
    1.6765   -0.2983    0.0000 O   0  0  0  0  0  0  0  0  0  0  0  0
    3.1773   -0.3022    0.0000 C   0  0  0  0  0  0  0  0  0  0  0  0
    3.9253    0.9864    0.0000 C   0  0  0  0  0  0  0  0  0  0  0  0
    3.1824    2.2963    0.0000 C   0  0  0  0  0  0  0  0  0  0  0  0
    1.6593    2.3016    0.0000 C   0  0  0  0  0  0  0  0  0  0  0  0
    1.9244    3.7780    0.0000 O   0  0  0  0  0  0  0  0  0  0  0  0
    4.5952    2.8004    0.0000 O   0  0  0  0  0  0  0  0  0  0  0  0
    5.0704    0.0175    0.0000 O   0  0  0  0  0  0  0  0  0  0  0  0
    2.9131   -1.7788    0.0000 C   0  0  0  0  0  0  0  0  0  0  0  0
    4.0598   -2.7459    0.0000 O   0  0  0  0  0  0  0  0  0  0  0  0
  1  2  1  0
  2  3  1  0
  3  4  1  0
  4  5  1  0
  5  6  1  0
  1  6  1  0
  5  7  1  0
  7  8  1  0
  8  9  1  0
  9 10  2  0
  4 10  1  0
  8 11  1  0
 11 12  1  0
 12 13  1  0
 13 14  1  0
  7 14  1  1
 12 15  1  0
 15 16  1  0
 16 17  1  0
 11 17  1  0
 15 18  1  0
 18 19  1  0
 18 20  1  0
 20 21  1  0
 21 22  2  0
 22 23  1  0
 23 24  1  0
 23 25  1  0
 23 26  1  0
 26 27  1  0
 12 28  1  6
 11 29  1  1
  7 30  1  0
 30 31  1  0
  4 31  1  1
 30 32  1  0
 32 33  1  0
  3 34  1  0
  3 35  1  0
  2 36  1  0
 36 37  1  0
 37 38  1  0
 38 39  1  0
 39 40  1  0
 40 41  1  0
 41 42  1  0
 37 42  1  0
 42 43  1  0
 41 44  1  0
 40 45  1  0
 39 46  1  0
 46 47  1  0
M  END
>  <cdk:Title>  (219) 
(2R_3S_4R_5R_6R)-2-(Hydroxymethyl)-6-{[(1R_4S_5S_8R_9R_12S_16S_19R)-19-methoxy-8-[(2R_4E)-6-methoxy-6-methylhept-4-en-2-yl]-5_9_17_17-tetramethyl-18-oxapentacyclo[10.5.2.0??_????.0???_????.0???_???]nonadec-2-en-16-yl]oxy}oxane-3_4_5-triol

>  <1A2>  (219) 
N

>  <2A6>  (219) 
N

>  <2B6>  (219) 
N

>  <2C8>  (219) 
N

>  <2C9>  (219) 
N

>  <2C19>  (219) 
N

>  <2D6>  (219) 
N

>  <2E1>  (219) 
N

>  <3A4>  (219) 
N

>  <Citation>  (219) 
Nucleic Acids Res. 2018. Jan 4;46(D1):D608-17. PMID:29140435
Nucleic Acids Res. 2018 Jan 4;46(D1):D1074-D1082. PMID:29126136
Nucleic Acids Res., 45:D380-388 (2017).  PMID:27924025
Nucleic Acids Res. 2016 Jan 4;44(D1):D1202-13. PMID:26400175

>  <ROMol>  (219) 
<rdkit.Chem.rdchem.Mol object at 0x7c2905d00f20>

>  <Drug_like>  (219) 
True

$$$$
1-Methylhistidine
     RDKit          2D

 12 12  0  0  0  0  0  0  0  0999 V2000
   -3.8422   -0.1810    0.0000 C   0  0  0  0  0  0  0  0  0  0  0  0
   -2.5446    0.5716    0.0000 N   0  0  0  0  0  0  0  0  0  0  0  0
   -2.3925    2.0681    0.0000 C   0  0  0  0  0  0  0  0  0  0  0  0
   -0.9191    2.3761    0.0000 N   0  0  0  0  0  0  0  0  0  0  0  0
   -0.1691    1.0770    0.0000 C   0  0  0  0  0  0  0  0  0  0  0  0
    1.3225    0.9180    0.0000 C   0  0  0  0  0  0  0  0  0  0  0  0
    2.2059    2.1303    0.0000 C   0  0  0  0  0  0  0  0  0  0  0  0
    2.6215    3.5716    0.0000 N   0  0  0  0  0  0  0  0  0  0  0  0
    3.6975    1.9713    0.0000 C   0  0  0  0  0  0  0  0  0  0  0  0
    4.5809    3.1835    0.0000 O   0  0  0  0  0  0  0  0  0  0  0  0
    4.3056    0.6001    0.0000 O   0  0  0  0  0  0  0  0  0  0  0  0
   -1.1775   -0.0363    0.0000 C   0  0  0  0  0  0  0  0  0  0  0  0
  1  2  1  0
  2  3  1  0
  3  4  2  0
  4  5  1  0
  5  6  1  0
  6  7  1  0
  7  8  1  0
  7  9  1  0
  9 10  1  0
  9 11  2  0
  5 12  2  0
  2 12  1  0
M  END
>  <cdk:Title>  (220) 
1-Methylhistidine

>  <1A2>  (220) 
N

>  <2A6>  (220) 
N

>  <2B6>  (220) 
N

>  <2C8>  (220) 
N

>  <2C9>  (220) 
N

>  <2C19>  (220) 
N

>  <2D6>  (220) 
N

>  <2E1>  (220) 
N

>  <3A4>  (220) 
N

>  <Citation>  (220) 
Nucleic Acids Res. 2018. Jan 4;46(D1):D608-17. PMID:29140435
Nucleic Acids Res. 2018 Jan 4;46(D1):D1074-D1082. PMID:29126136
Nucleic Acids Res., 45:D380-388 (2017).  PMID:27924025
Nucleic Acids Res. 2016 Jan 4;44(D1):D1202-13. PMID:26400175

>  <ROMol>  (220) 
<rdkit.Chem.rdchem.Mol object at 0x7c2905d00f90>

>  <Drug_like>  (220) 
True

$$$$
2-Oxobutanoic acid
     RDKit          2D

  7  6  0  0  0  0  0  0  0  0999 V2000
    6.4952   -0.7500    0.0000 C   0  0  0  0  0  0  0  0  0  0  0  0
    5.1962   -0.0000    0.0000 C   0  0  0  0  0  0  0  0  0  0  0  0
    3.8971   -0.7500    0.0000 C   0  0  0  0  0  0  0  0  0  0  0  0
    3.8971   -2.2500    0.0000 O   0  0  0  0  0  0  0  0  0  0  0  0
    2.5981   -0.0000    0.0000 C   0  0  0  0  0  0  0  0  0  0  0  0
    1.2990   -0.7500    0.0000 O   0  0  0  0  0  0  0  0  0  0  0  0
    2.5981    1.5000    0.0000 O   0  0  0  0  0  0  0  0  0  0  0  0
  1  2  1  0
  2  3  1  0
  3  4  2  0
  3  5  1  0
  5  6  1  0
  5  7  2  0
M  END
>  <cdk:Title>  (221) 
2-Oxobutanoic acid

>  <1A2>  (221) 
N

>  <2A6>  (221) 
N

>  <2B6>  (221) 
N

>  <2C8>  (221) 
N

>  <2C9>  (221) 
N

>  <2C19>  (221) 
N

>  <2D6>  (221) 
N

>  <2E1>  (221) 
N

>  <3A4>  (221) 
N

>  <Citation>  (221) 
Nucleic Acids Res. 2018. Jan 4;46(D1):D608-17. PMID:29140435
Nucleic Acids Res. 2018 Jan 4;46(D1):D1074-D1082. PMID:29126136
Nucleic Acids Res., 45:D380-388 (2017).  PMID:27924025
Nucleic Acids Res. 2016 Jan 4;44(D1):D1202-13. PMID:26400175

>  <ROMol>  (221) 
<rdkit.Chem.rdchem.Mol object at 0x7c2905d01000>

>  <Drug_like>  (221) 
True

$$$$
(R)-3-Hydroxybutyric acid
     RDKit          2D

  7  6  0  0  0  0  0  0  0  0999 V2000
    2.1510    1.4180    0.0000 C   0  0  0  0  0  0  0  0  0  0  0  0
    1.1868    0.2689    0.0000 C   0  0  0  0  0  0  0  0  0  0  0  0
   -0.1122   -0.4811    0.0000 O   0  0  0  0  0  0  0  0  0  0  0  0
    3.7329   -1.2011    0.0000 C   0  0  0  0  0  0  0  0  0  0  0  0
    3.7329   -2.7011    0.0000 C   0  0  0  0  0  0  0  0  0  0  0  0
    5.0320   -3.4511    0.0000 O   0  0  0  0  0  0  0  0  0  0  0  0
    2.4339   -3.4511    0.0000 O   0  0  0  0  0  0  0  0  0  0  0  0
  1  2  1  0
  2  3  1  0
  2  4  1  0
  4  5  1  0
  5  6  1  0
  5  7  2  0
M  END
>  <cdk:Title>  (222) 
(R)-3-Hydroxybutyric acid

>  <1A2>  (222) 
N

>  <2A6>  (222) 
N

>  <2B6>  (222) 
N

>  <2C8>  (222) 
N

>  <2C9>  (222) 
N

>  <2C19>  (222) 
N

>  <2D6>  (222) 
N

>  <2E1>  (222) 
N

>  <3A4>  (222) 
N

>  <Citation>  (222) 
Nucleic Acids Res. 2018. Jan 4;46(D1):D608-17. PMID:29140435
Nucleic Acids Res. 2018 Jan 4;46(D1):D1074-D1082. PMID:29126136
Nucleic Acids Res., 45:D380-388 (2017).  PMID:27924025
Nucleic Acids Res. 2016 Jan 4;44(D1):D1202-13. PMID:26400175

>  <ROMol>  (222) 
<rdkit.Chem.rdchem.Mol object at 0x7c2905d01070>

>  <Drug_like>  (222) 
True

$$$$
2'-Deoxyuridine
     RDKit          2D

 16 17  0  0  0  0  0  0  0  0999 V2000
    3.5225    5.5811    0.0000 O   0  0  0  0  0  0  0  0  0  0  0  0
    2.6469    4.3632    0.0000 C   0  0  0  0  0  0  0  0  0  0  0  0
    1.1543    4.5125    0.0000 C   0  0  0  0  0  0  0  0  0  0  0  0
    1.1652    3.0105    0.0000 O   0  0  0  0  0  0  0  0  0  0  0  0
   -0.2654    2.5528    0.0000 C   0  0  0  0  0  0  0  0  0  0  0  0
   -1.1455    3.7584    0.0000 C   0  0  0  0  0  0  0  0  0  0  0  0
   -0.2655    4.9731    0.0000 C   0  0  0  0  0  0  0  0  0  0  0  0
    0.3436    6.3439    0.0000 O   0  0  0  0  0  0  0  0  0  0  0  0
   -1.9802    1.5628    0.0000 N   0  0  0  0  0  0  0  0  0  0  0  0
   -3.2797    2.3136    0.0000 C   0  0  0  0  0  0  0  0  0  0  0  0
   -4.5787    1.5636    0.0000 C   0  0  0  0  0  0  0  0  0  0  0  0
   -4.5782    0.0628    0.0000 C   0  0  0  0  0  0  0  0  0  0  0  0
   -5.8773   -0.6872    0.0000 O   0  0  0  0  0  0  0  0  0  0  0  0
   -3.2787   -0.6881    0.0000 N   0  0  0  0  0  0  0  0  0  0  0  0
   -1.9797    0.0619    0.0000 C   0  0  0  0  0  0  0  0  0  0  0  0
   -0.6805   -0.6879    0.0000 O   0  0  0  0  0  0  0  0  0  0  0  0
  1  2  1  0
  2  3  1  0
  3  4  1  0
  4  5  1  0
  5  6  1  0
  6  7  1  0
  3  7  1  0
  7  8  1  0
  5  9  1  0
  9 10  1  0
 10 11  2  0
 11 12  1  0
 12 13  2  0
 12 14  1  0
 14 15  1  0
  9 15  1  0
 15 16  2  0
M  END
>  <cdk:Title>  (223) 
2'-Deoxyuridine

>  <1A2>  (223) 
N

>  <2A6>  (223) 
N

>  <2B6>  (223) 
N

>  <2C8>  (223) 
N

>  <2C9>  (223) 
N

>  <2C19>  (223) 
N

>  <2D6>  (223) 
N

>  <2E1>  (223) 
N

>  <3A4>  (223) 
N

>  <Citation>  (223) 
Nucleic Acids Res. 2018. Jan 4;46(D1):D608-17. PMID:29140435
Nucleic Acids Res. 2018 Jan 4;46(D1):D1074-D1082. PMID:29126136
Nucleic Acids Res., 45:D380-388 (2017).  PMID:27924025
Nucleic Acids Res. 2016 Jan 4;44(D1):D1202-13. PMID:26400175

>  <ROMol>  (223) 
<rdkit.Chem.rdchem.Mol object at 0x7c2905d010e0>

>  <Drug_like>  (223) 
True

$$$$
Phosphocreatine
     RDKit          2D

 13 12  0  0  0  0  0  0  0  0999 V2000
    6.4952   -1.8991    0.0000 C   0  0  0  0  0  0  0  0  0  0  0  0
    6.4952   -0.3991    0.0000 N   0  0  0  0  0  0  0  0  0  0  0  0
    7.7942    0.3509    0.0000 C   0  0  0  0  0  0  0  0  0  0  0  0
    9.0933   -0.3991    0.0000 C   0  0  0  0  0  0  0  0  0  0  0  0
   10.3923    0.3509    0.0000 O   0  0  0  0  0  0  0  0  0  0  0  0
    9.0933   -1.8991    0.0000 O   0  0  0  0  0  0  0  0  0  0  0  0
    5.1962    0.3509    0.0000 C   0  0  0  0  0  0  0  0  0  0  0  0
    5.1962    1.8509    0.0000 N   0  0  0  0  0  0  0  0  0  0  0  0
    3.8971   -0.3991    0.0000 N   0  0  0  0  0  0  0  0  0  0  0  0
    2.5981    0.3509    0.0000 P   0  0  0  0  0  0  0  0  0  0  0  0
    1.2990   -0.3991    0.0000 O   0  0  0  0  0  0  0  0  0  0  0  0
    3.5623    1.5000    0.0000 O   0  0  0  0  0  0  0  0  0  0  0  0
    1.6339    1.5000    0.0000 O   0  0  0  0  0  0  0  0  0  0  0  0
  1  2  1  0
  2  3  1  0
  3  4  1  0
  4  5  1  0
  4  6  2  0
  2  7  1  0
  7  8  2  0
  7  9  1  0
  9 10  1  0
 10 11  1  0
 10 12  1  0
 10 13  2  0
M  END
>  <cdk:Title>  (224) 
Phosphocreatine

>  <1A2>  (224) 
N

>  <2A6>  (224) 
N

>  <2B6>  (224) 
N

>  <2C8>  (224) 
N

>  <2C9>  (224) 
N

>  <2C19>  (224) 
N

>  <2D6>  (224) 
N

>  <2E1>  (224) 
N

>  <3A4>  (224) 
N

>  <Citation>  (224) 
Nucleic Acids Res. 2018. Jan 4;46(D1):D608-17. PMID:29140435
Nucleic Acids Res. 2018 Jan 4;46(D1):D1074-D1082. PMID:29126136
Nucleic Acids Res., 45:D380-388 (2017).  PMID:27924025
Nucleic Acids Res. 2016 Jan 4;44(D1):D1202-13. PMID:26400175

>  <ROMol>  (224) 
<rdkit.Chem.rdchem.Mol object at 0x7c2905d01230>

>  <Drug_like>  (224) 
True

$$$$
D-Myo-inositol 4-phosphate
     RDKit          2D

 16 16  0  0  0  0  0  0  0  0999 V2000
   -2.7127    1.3720    0.0000 O   0  0  0  0  0  0  0  0  0  0  0  0
   -2.1996   -0.0375    0.0000 C   0  0  0  0  0  0  0  0  0  0  0  0
   -1.2342   -1.1867    0.0000 C   0  0  0  0  0  0  0  0  0  0  0  0
   -0.2705   -0.0372    0.0000 O   0  0  0  0  0  0  0  0  0  0  0  0
   -1.7470   -2.5964    0.0000 C   0  0  0  0  0  0  0  0  0  0  0  0
   -0.2697   -2.8567    0.0000 O   0  0  0  0  0  0  0  0  0  0  0  0
   -3.2250   -2.8568    0.0000 C   0  0  0  0  0  0  0  0  0  0  0  0
   -2.7118   -4.2663    0.0000 O   0  0  0  0  0  0  0  0  0  0  0  0
   -3.6759   -5.4155    0.0000 P   0  0  0  0  0  0  0  0  0  0  0  0
   -5.1531   -5.1552    0.0000 O   0  0  0  0  0  0  0  0  0  0  0  0
   -4.1888   -6.8251    0.0000 O   0  0  0  0  0  0  0  0  0  0  0  0
   -2.3768   -6.1653    0.0000 O   0  0  0  0  0  0  0  0  0  0  0  0
   -4.1903   -1.7076    0.0000 C   0  0  0  0  0  0  0  0  0  0  0  0
   -5.1540   -2.8571    0.0000 O   0  0  0  0  0  0  0  0  0  0  0  0
   -3.6776   -0.2980    0.0000 C   0  0  0  0  0  0  0  0  0  0  0  0
   -5.1549   -0.0377    0.0000 O   0  0  0  0  0  0  0  0  0  0  0  0
  1  2  1  0
  2  3  1  0
  3  4  1  0
  3  5  1  0
  5  6  1  0
  5  7  1  0
  7  8  1  0
  8  9  1  0
  9 10  1  0
  9 11  1  0
  9 12  2  0
  7 13  1  0
 13 14  1  0
 13 15  1  0
  2 15  1  0
 15 16  1  0
M  END
>  <cdk:Title>  (225) 
D-Myo-inositol 4-phosphate

>  <1A2>  (225) 
N

>  <2A6>  (225) 
N

>  <2B6>  (225) 
N

>  <2C8>  (225) 
N

>  <2C9>  (225) 
N

>  <2C19>  (225) 
N

>  <2D6>  (225) 
N

>  <2E1>  (225) 
N

>  <3A4>  (225) 
N

>  <Citation>  (225) 
Nucleic Acids Res. 2018. Jan 4;46(D1):D608-17. PMID:29140435
Nucleic Acids Res. 2018 Jan 4;46(D1):D1074-D1082. PMID:29126136
Nucleic Acids Res., 45:D380-388 (2017).  PMID:27924025
Nucleic Acids Res. 2016 Jan 4;44(D1):D1202-13. PMID:26400175

>  <ROMol>  (225) 
<rdkit.Chem.rdchem.Mol object at 0x7c2905d012a0>

>  <Drug_like>  (225) 
True

$$$$
Cyclic guanosine monophosphate
     RDKit          2D

 23 26  0  0  0  0  0  0  0  0999 V2000
   -2.5009    3.7681    0.0000 N   0  0  0  0  0  0  0  0  0  0  0  0
   -1.0727    4.2266    0.0000 C   0  0  0  0  0  0  0  0  0  0  0  0
   -0.0273    3.2451    0.0000 N   0  0  0  0  0  0  0  0  0  0  0  0
    1.5462    3.6971    0.0000 C   0  0  0  0  0  0  0  0  0  0  0  0
    1.7586    5.1823    0.0000 C   0  0  0  0  0  0  0  0  0  0  0  0
    3.2574    5.3628    0.0000 N   0  0  0  0  0  0  0  0  0  0  0  0
    3.8847    3.9936    0.0000 C   0  0  0  0  0  0  0  0  0  0  0  0
    2.7765    2.9792    0.0000 N   0  0  0  0  0  0  0  0  0  0  0  0
    2.9360    1.4877    0.0000 C   0  0  0  0  0  0  0  0  0  0  0  0
    2.7789   -0.0002    0.0000 O   0  0  0  0  0  0  0  0  0  0  0  0
    4.1510   -0.6168    0.0000 C   0  0  0  0  0  0  0  0  0  0  0  0
    4.4705   -1.9103    0.0000 C   0  0  0  0  0  0  0  0  0  0  0  0
    5.6807   -2.3663    0.0000 O   0  0  0  0  0  0  0  0  0  0  0  0
    6.9630   -1.4874    0.0000 P   0  0  0  0  0  0  0  0  0  0  0  0
    7.6668   -2.8120    0.0000 O   0  0  0  0  0  0  0  0  0  0  0  0
    8.3583   -0.9367    0.0000 O   0  0  0  0  0  0  0  0  0  0  0  0
    6.5481    0.0513    0.0000 O   0  0  0  0  0  0  0  0  0  0  0  0
    5.1594    0.4966    0.0000 C   0  0  0  0  0  0  0  0  0  0  0  0
    4.4044    1.8043    0.0000 C   0  0  0  0  0  0  0  0  0  0  0  0
    5.7741    2.4157    0.0000 O   0  0  0  0  0  0  0  0  0  0  0  0
    0.6344    6.1767    0.0000 C   0  0  0  0  0  0  0  0  0  0  0  0
    0.9271    7.6479    0.0000 O   0  0  0  0  0  0  0  0  0  0  0  0
   -0.7829    5.6890    0.0000 N   0  0  0  0  0  0  0  0  0  0  0  0
  1  2  1  0
  2  3  2  0
  3  4  1  0
  4  5  2  0
  5  6  1  0
  6  7  2  0
  7  8  1  0
  4  8  1  0
  8  9  1  0
  9 10  1  0
 10 11  1  0
 11 12  1  0
 12 13  1  0
 13 14  1  0
 14 15  1  0
 14 16  2  0
 14 17  1  0
 17 18  1  0
 11 18  1  0
 18 19  1  0
  9 19  1  0
 19 20  1  0
  5 21  1  0
 21 22  2  0
 21 23  1  0
  2 23  1  0
M  END
>  <cdk:Title>  (226) 
Cyclic guanosine monophosphate

>  <1A2>  (226) 
N

>  <2A6>  (226) 
N

>  <2B6>  (226) 
N

>  <2C8>  (226) 
N

>  <2C9>  (226) 
N

>  <2C19>  (226) 
N

>  <2D6>  (226) 
N

>  <2E1>  (226) 
N

>  <3A4>  (226) 
N

>  <Citation>  (226) 
Nucleic Acids Res. 2018. Jan 4;46(D1):D608-17. PMID:29140435
Nucleic Acids Res. 2018 Jan 4;46(D1):D1074-D1082. PMID:29126136
Nucleic Acids Res., 45:D380-388 (2017).  PMID:27924025
Nucleic Acids Res. 2016 Jan 4;44(D1):D1202-13. PMID:26400175

>  <ROMol>  (226) 
<rdkit.Chem.rdchem.Mol object at 0x7c2905d01310>

>  <Drug_like>  (226) 
True

$$$$
4-Methylpentanal
     RDKit          2D

  7  6  0  0  0  0  0  0  0  0999 V2000
    3.5623    1.1491    0.0000 C   0  0  0  0  0  0  0  0  0  0  0  0
    2.2895   -0.3677    0.0000 C   0  0  0  0  0  0  0  0  0  0  0  0
    0.9905   -1.1177    0.0000 C   0  0  0  0  0  0  0  0  0  0  0  0
    3.5886   -1.1177    0.0000 C   0  0  0  0  0  0  0  0  0  0  0  0
    3.5886   -2.6177    0.0000 C   0  0  0  0  0  0  0  0  0  0  0  0
    4.8876   -3.3677    0.0000 C   0  0  0  0  0  0  0  0  0  0  0  0
    4.8876   -4.8677    0.0000 O   0  0  0  0  0  0  0  0  0  0  0  0
  1  2  1  0
  2  3  1  0
  2  4  1  0
  4  5  1  0
  5  6  1  0
  6  7  2  0
M  END
>  <cdk:Title>  (227) 
4-Methylpentanal

>  <1A2>  (227) 
N

>  <2A6>  (227) 
N

>  <2B6>  (227) 
N

>  <2C8>  (227) 
N

>  <2C9>  (227) 
N

>  <2C19>  (227) 
N

>  <2D6>  (227) 
N

>  <2E1>  (227) 
N

>  <3A4>  (227) 
N

>  <Citation>  (227) 
Nucleic Acids Res. 2018. Jan 4;46(D1):D608-17. PMID:29140435
Nucleic Acids Res. 2018 Jan 4;46(D1):D1074-D1082. PMID:29126136
Nucleic Acids Res., 45:D380-388 (2017).  PMID:27924025
Nucleic Acids Res. 2016 Jan 4;44(D1):D1202-13. PMID:26400175

>  <ROMol>  (227) 
<rdkit.Chem.rdchem.Mol object at 0x7c2905d01380>

>  <Drug_like>  (227) 
True

$$$$
N6_N6_N6-Trimethyl-L-lysine
     RDKit          2D

 13 12  0  0  0  0  0  0  0  0999 V2000
    7.1653    0.9658    0.0000 C   0  0  0  0  0  0  0  0  0  0  0  0
    6.4881    2.8264    0.0000 N   0  0  0  0  0  0  0  0  0  0  0  0
    6.4881    4.3264    0.0000 C   0  0  0  0  0  0  0  0  0  0  0  0
    7.9653    3.0868    0.0000 C   0  0  0  0  0  0  0  0  0  0  0  0
    3.9420    1.3564    0.0000 C   0  0  0  0  0  0  0  0  0  0  0  0
    3.9420   -0.6236    0.0000 C   0  0  0  0  0  0  0  0  0  0  0  0
    2.2272   -1.6136    0.0000 C   0  0  0  0  0  0  0  0  0  0  0  0
    2.2272   -3.1136    0.0000 C   0  0  0  0  0  0  0  0  0  0  0  0
    0.9282   -3.8636    0.0000 C   0  0  0  0  0  0  0  0  0  0  0  0
   -0.3708   -3.1136    0.0000 N   0  0  0  0  0  0  0  0  0  0  0  0
    2.2009   -5.3804    0.0000 C   0  0  0  0  0  0  0  0  0  0  0  0
    1.6879   -6.7899    0.0000 O   0  0  0  0  0  0  0  0  0  0  0  0
    3.6781   -5.1199    0.0000 O   0  0  0  0  0  0  0  0  0  0  0  0
  1  2  1  0
  2  3  1  0
  2  4  1  0
  2  5  1  0
  5  6  1  0
  6  7  1  0
  7  8  1  0
  8  9  1  0
  9 10  1  0
  9 11  1  0
 11 12  1  0
 11 13  2  0
M  CHG  2   2   1  12  -1
M  END
>  <cdk:Title>  (228) 
N6_N6_N6-Trimethyl-L-lysine

>  <1A2>  (228) 
N

>  <2A6>  (228) 
N

>  <2B6>  (228) 
N

>  <2C8>  (228) 
N

>  <2C9>  (228) 
N

>  <2C19>  (228) 
N

>  <2D6>  (228) 
N

>  <2E1>  (228) 
N

>  <3A4>  (228) 
N

>  <Citation>  (228) 
Nucleic Acids Res. 2018. Jan 4;46(D1):D608-17. PMID:29140435
Nucleic Acids Res. 2018 Jan 4;46(D1):D1074-D1082. PMID:29126136
Nucleic Acids Res., 45:D380-388 (2017).  PMID:27924025
Nucleic Acids Res. 2016 Jan 4;44(D1):D1202-13. PMID:26400175

>  <ROMol>  (228) 
<rdkit.Chem.rdchem.Mol object at 0x7c2905d013f0>

>  <Drug_like>  (228) 
True

$$$$
Purine
     RDKit          2D

  9 10  0  0  0  0  0  0  0  0999 V2000
    1.7200    1.2100    0.0000 N   0  0  0  0  0  0  0  0  0  0  0  0
    2.6000    0.0000    0.0000 C   0  0  0  0  0  0  0  0  0  0  0  0
    1.7200   -1.2100    0.0000 N   0  0  0  0  0  0  0  0  0  0  0  0
    0.2900   -0.7500    0.0000 C   0  0  0  0  0  0  0  0  0  0  0  0
    0.2900    0.7500    0.0000 C   0  0  0  0  0  0  0  0  0  0  0  0
   -1.0100    1.5000    0.0000 C   0  0  0  0  0  0  0  0  0  0  0  0
   -2.3100    0.7500    0.0000 N   0  0  0  0  0  0  0  0  0  0  0  0
   -2.3100   -0.7500    0.0000 C   0  0  0  0  0  0  0  0  0  0  0  0
   -1.0100   -1.5000    0.0000 N   0  0  0  0  0  0  0  0  0  0  0  0
  1  2  1  0
  2  3  2  0
  3  4  1  0
  4  5  2  0
  1  5  1  0
  5  6  1  0
  6  7  2  0
  7  8  1  0
  8  9  2  0
  4  9  1  0
M  END
>  <cdk:Title>  (229) 
Purine

>  <1A2>  (229) 
N

>  <2A6>  (229) 
N

>  <2B6>  (229) 
N

>  <2C8>  (229) 
N

>  <2C9>  (229) 
N

>  <2C19>  (229) 
N

>  <2D6>  (229) 
N

>  <2E1>  (229) 
N

>  <3A4>  (229) 
N

>  <Citation>  (229) 
Nucleic Acids Res. 2018. Jan 4;46(D1):D608-17. PMID:29140435
Nucleic Acids Res. 2018 Jan 4;46(D1):D1074-D1082. PMID:29126136
Nucleic Acids Res., 45:D380-388 (2017).  PMID:27924025
Nucleic Acids Res. 2016 Jan 4;44(D1):D1202-13. PMID:26400175

>  <ROMol>  (229) 
<rdkit.Chem.rdchem.Mol object at 0x7c2905d01540>

>  <Drug_like>  (229) 
True

$$$$
N-Acetyl-beta-D-glucosamine 1-phosphate
     RDKit          2D

 19 19  0  0  0  0  0  0  0  0999 V2000
   -1.6550    1.0184    0.0000 C   0  0  0  0  0  0  0  0  0  0  0  0
   -0.1777    0.7586    0.0000 C   0  0  0  0  0  0  0  0  0  0  0  0
    0.7860    1.9081    0.0000 O   0  0  0  0  0  0  0  0  0  0  0  0
    0.3359   -0.6507    0.0000 N   0  0  0  0  0  0  0  0  0  0  0  0
    2.2860   -0.9937    0.0000 C   0  0  0  0  0  0  0  0  0  0  0  0
    1.7734   -2.4043    0.0000 C   0  0  0  0  0  0  0  0  0  0  0  0
    0.8094   -3.5535    0.0000 O   0  0  0  0  0  0  0  0  0  0  0  0
    2.7380   -3.5541    0.0000 C   0  0  0  0  0  0  0  0  0  0  0  0
    3.2512   -4.9636    0.0000 O   0  0  0  0  0  0  0  0  0  0  0  0
    4.2152   -3.2934    0.0000 C   0  0  0  0  0  0  0  0  0  0  0  0
    5.6925   -3.5532    0.0000 C   0  0  0  0  0  0  0  0  0  0  0  0
    6.2062   -4.9625    0.0000 O   0  0  0  0  0  0  0  0  0  0  0  0
    4.7278   -1.8828    0.0000 O   0  0  0  0  0  0  0  0  0  0  0  0
    3.7632   -0.7329    0.0000 C   0  0  0  0  0  0  0  0  0  0  0  0
    3.2500    0.6765    0.0000 O   0  0  0  0  0  0  0  0  0  0  0  0
    4.2140    1.8257    0.0000 P   0  0  0  0  0  0  0  0  0  0  0  0
    5.6913    1.5654    0.0000 O   0  0  0  0  0  0  0  0  0  0  0  0
    4.7269    3.2353    0.0000 O   0  0  0  0  0  0  0  0  0  0  0  0
    2.9149    2.5756    0.0000 O   0  0  0  0  0  0  0  0  0  0  0  0
  1  2  1  0
  2  3  2  0
  2  4  1  0
  4  5  1  0
  5  6  1  0
  6  7  1  0
  6  8  1  0
  8  9  1  0
  8 10  1  0
 10 11  1  0
 11 12  1  0
 10 13  1  0
 13 14  1  0
  5 14  1  0
 14 15  1  0
 15 16  1  0
 16 17  1  0
 16 18  1  0
 16 19  2  0
M  END
>  <cdk:Title>  (230) 
N-Acetyl-beta-D-glucosamine 1-phosphate

>  <1A2>  (230) 
N

>  <2A6>  (230) 
N

>  <2B6>  (230) 
N

>  <2C8>  (230) 
N

>  <2C9>  (230) 
N

>  <2C19>  (230) 
N

>  <2D6>  (230) 
N

>  <2E1>  (230) 
N

>  <3A4>  (230) 
N

>  <Citation>  (230) 
Nucleic Acids Res. 2018. Jan 4;46(D1):D608-17. PMID:29140435
Nucleic Acids Res. 2018 Jan 4;46(D1):D1074-D1082. PMID:29126136
Nucleic Acids Res., 45:D380-388 (2017).  PMID:27924025
Nucleic Acids Res. 2016 Jan 4;44(D1):D1202-13. PMID:26400175

>  <ROMol>  (230) 
<rdkit.Chem.rdchem.Mol object at 0x7c2905d015b0>

>  <Drug_like>  (230) 
True

$$$$
3-Mercaptopyruvic acid
     RDKit          2D

  9  9  0  0  0  0  0  0  0  0999 V2000
    3.2887    0.7438    0.0000 O   0  0  0  0  0  0  0  0  0  0  0  0
    1.7977    0.9075    0.0000 C   0  0  0  0  0  0  0  0  0  0  0  0
    0.7843   -0.1972    0.0000 C   0  0  0  0  0  0  0  0  0  0  0  0
   -0.5778    0.4021    0.0000 C   0  0  0  0  0  0  0  0  0  0  0  0
   -0.4257    1.8986    0.0000 N   0  0  0  0  0  0  0  0  0  0  0  0
    1.0477    2.2066    0.0000 C   0  0  0  0  0  0  0  0  0  0  0  0
   -1.8739   -0.3530    0.0000 C   0  0  0  0  0  0  0  0  0  0  0  0
   -3.1759    0.3918    0.0000 O   0  0  0  0  0  0  0  0  0  0  0  0
   -1.8680   -1.8530    0.0000 O   0  0  0  0  0  0  0  0  0  0  0  0
  1  2  1  0
  2  3  1  0
  3  4  1  0
  4  5  1  0
  5  6  2  0
  2  6  1  0
  4  7  1  0
  7  8  1  0
  7  9  2  0
M  END
>  <cdk:Title>  (231) 
3-Mercaptopyruvic acid

>  <1A2>  (231) 
N

>  <2A6>  (231) 
N

>  <2B6>  (231) 
N

>  <2C8>  (231) 
N

>  <2C9>  (231) 
N

>  <2C19>  (231) 
N

>  <2D6>  (231) 
N

>  <2E1>  (231) 
N

>  <3A4>  (231) 
N

>  <Citation>  (231) 
Nucleic Acids Res. 2018. Jan 4;46(D1):D608-17. PMID:29140435
Nucleic Acids Res. 2018 Jan 4;46(D1):D1074-D1082. PMID:29126136
Nucleic Acids Res., 45:D380-388 (2017).  PMID:27924025
Nucleic Acids Res. 2016 Jan 4;44(D1):D1202-13. PMID:26400175

>  <ROMol>  (231) 
<rdkit.Chem.rdchem.Mol object at 0x7c2905d01620>

>  <Drug_like>  (231) 
True

$$$$
1_1-Dimethylbiguanide
     RDKit          2D

  9  8  0  0  0  0  0  0  0  0999 V2000
    6.8591    0.8697    0.0000 C   0  0  0  0  0  0  0  0  0  0  0  0
    5.5601    1.6197    0.0000 N   0  0  0  0  0  0  0  0  0  0  0  0
    5.5601    3.1197    0.0000 C   0  0  0  0  0  0  0  0  0  0  0  0
    4.2610    0.8697    0.0000 C   0  0  0  0  0  0  0  0  0  0  0  0
    2.9620    1.6197    0.0000 N   0  0  0  0  0  0  0  0  0  0  0  0
    4.2610   -0.6303    0.0000 N   0  0  0  0  0  0  0  0  0  0  0  0
    2.9620   -1.3803    0.0000 C   0  0  0  0  0  0  0  0  0  0  0  0
    2.9620   -2.8803    0.0000 N   0  0  0  0  0  0  0  0  0  0  0  0
    1.6630   -0.6303    0.0000 N   0  0  0  0  0  0  0  0  0  0  0  0
  1  2  1  0
  2  3  1  0
  2  4  1  0
  4  5  2  0
  4  6  1  0
  6  7  1  0
  7  8  1  0
  7  9  2  0
M  END
>  <cdk:Title>  (232) 
1_1-Dimethylbiguanide

>  <1A2>  (232) 
N

>  <2A6>  (232) 
N

>  <2B6>  (232) 
N

>  <2C8>  (232) 
N

>  <2C9>  (232) 
N

>  <2C19>  (232) 
N

>  <2D6>  (232) 
N

>  <2E1>  (232) 
N

>  <3A4>  (232) 
N

>  <Citation>  (232) 
Nucleic Acids Res. 2018. Jan 4;46(D1):D608-17. PMID:29140435
Nucleic Acids Res. 2018 Jan 4;46(D1):D1074-D1082. PMID:29126136
Nucleic Acids Res., 45:D380-388 (2017).  PMID:27924025
Nucleic Acids Res. 2016 Jan 4;44(D1):D1202-13. PMID:26400175

>  <ROMol>  (232) 
<rdkit.Chem.rdchem.Mol object at 0x7c2905d01690>

>  <Drug_like>  (232) 
True

$$$$
Uric acid
     RDKit          2D

 12 13  0  0  0  0  0  0  0  0999 V2000
    4.1400   -0.1171    0.0000 O   0  0  0  0  0  0  0  0  0  0  0  0
    2.6400   -0.1200    0.0000 C   0  0  0  0  0  0  0  0  0  0  0  0
    1.7600   -1.3400    0.0000 N   0  0  0  0  0  0  0  0  0  0  0  0
    0.3400   -0.8800    0.0000 C   0  0  0  0  0  0  0  0  0  0  0  0
    0.3400    0.6200    0.0000 C   0  0  0  0  0  0  0  0  0  0  0  0
    1.7600    1.0900    0.0000 N   0  0  0  0  0  0  0  0  0  0  0  0
   -0.9600    1.3800    0.0000 C   0  0  0  0  0  0  0  0  0  0  0  0
   -0.9600    2.8800    0.0000 O   0  0  0  0  0  0  0  0  0  0  0  0
   -2.2600    0.6200    0.0000 N   0  0  0  0  0  0  0  0  0  0  0  0
   -2.2600   -0.8800    0.0000 C   0  0  0  0  0  0  0  0  0  0  0  0
   -3.5567   -1.6340    0.0000 O   0  0  0  0  0  0  0  0  0  0  0  0
   -0.9600   -1.6200    0.0000 N   0  0  0  0  0  0  0  0  0  0  0  0
  1  2  2  0
  2  3  1  0
  3  4  1  0
  4  5  2  0
  5  6  1  0
  2  6  1  0
  5  7  1  0
  7  8  2  0
  7  9  1  0
  9 10  1  0
 10 11  2  0
 10 12  1  0
  4 12  1  0
M  END
>  <cdk:Title>  (233) 
Uric acid

>  <1A2>  (233) 
N

>  <2A6>  (233) 
N

>  <2B6>  (233) 
N

>  <2C8>  (233) 
N

>  <2C9>  (233) 
N

>  <2C19>  (233) 
N

>  <2D6>  (233) 
N

>  <2E1>  (233) 
N

>  <3A4>  (233) 
N

>  <Citation>  (233) 
Nucleic Acids Res. 2018. Jan 4;46(D1):D608-17. PMID:29140435
Nucleic Acids Res. 2018 Jan 4;46(D1):D1074-D1082. PMID:29126136
Nucleic Acids Res., 45:D380-388 (2017).  PMID:27924025
Nucleic Acids Res. 2016 Jan 4;44(D1):D1202-13. PMID:26400175

>  <ROMol>  (233) 
<rdkit.Chem.rdchem.Mol object at 0x7c2905d01700>

>  <Drug_like>  (233) 
True

$$$$
Bilastine
     RDKit          2D

 34 37  0  0  0  0  0  0  0  0999 V2000
   -2.6849   -6.4050    0.0000 C   0  0  0  0  0  0  0  0  0  0  0  0
   -1.3615   -7.1111    0.0000 C   0  0  0  0  0  0  0  0  0  0  0  0
   -0.0882   -6.3181    0.0000 O   0  0  0  0  0  0  0  0  0  0  0  0
    1.6586   -7.2502    0.0000 C   0  0  0  0  0  0  0  0  0  0  0  0
    2.9319   -6.4571    0.0000 C   0  0  0  0  0  0  0  0  0  0  0  0
    4.2553   -7.1633    0.0000 N   0  0  0  0  0  0  0  0  0  0  0  0
    5.5998   -6.5070    0.0000 C   0  0  0  0  0  0  0  0  0  0  0  0
    6.6384   -7.5840    0.0000 N   0  0  0  0  0  0  0  0  0  0  0  0
    5.9368   -8.9122    0.0000 C   0  0  0  0  0  0  0  0  0  0  0  0
    6.4494  -10.3228    0.0000 C   0  0  0  0  0  0  0  0  0  0  0  0
    5.4848  -11.4726    0.0000 C   0  0  0  0  0  0  0  0  0  0  0  0
    4.0076  -11.2119    0.0000 C   0  0  0  0  0  0  0  0  0  0  0  0
    3.4951   -9.8013    0.0000 C   0  0  0  0  0  0  0  0  0  0  0  0
    4.4596   -8.6514    0.0000 C   0  0  0  0  0  0  0  0  0  0  0  0
    5.9441   -4.5572    0.0000 C   0  0  0  0  0  0  0  0  0  0  0  0
    5.6831   -3.0792    0.0000 C   0  0  0  0  0  0  0  0  0  0  0  0
    6.8323   -2.1151    0.0000 C   0  0  0  0  0  0  0  0  0  0  0  0
    8.2424   -2.6291    0.0000 N   0  0  0  0  0  0  0  0  0  0  0  0
   10.1271   -1.0480    0.0000 C   0  0  0  0  0  0  0  0  0  0  0  0
    9.8667    0.4292    0.0000 C   0  0  0  0  0  0  0  0  0  0  0  0
   11.0159    1.3933    0.0000 C   0  0  0  0  0  0  0  0  0  0  0  0
   10.7468    2.8173    0.0000 C   0  0  0  0  0  0  0  0  0  0  0  0
   11.8423    3.8125    0.0000 C   0  0  0  0  0  0  0  0  0  0  0  0
   13.2438    3.2826    0.0000 C   0  0  0  0  0  0  0  0  0  0  0  0
   13.5129    1.8586    0.0000 C   0  0  0  0  0  0  0  0  0  0  0  0
   12.4174    0.8634    0.0000 C   0  0  0  0  0  0  0  0  0  0  0  0
   14.7607    4.5551    0.0000 C   0  0  0  0  0  0  0  0  0  0  0  0
   16.2310    7.1011    0.0000 C   0  0  0  0  0  0  0  0  0  0  0  0
   12.5087    6.4451    0.0000 C   0  0  0  0  0  0  0  0  0  0  0  0
   16.1702    4.0419    0.0000 C   0  0  0  0  0  0  0  0  0  0  0  0
   17.3194    5.0060    0.0000 O   0  0  0  0  0  0  0  0  0  0  0  0
   16.4305    2.5647    0.0000 O   0  0  0  0  0  0  0  0  0  0  0  0
    8.5033   -4.1070    0.0000 C   0  0  0  0  0  0  0  0  0  0  0  0
    7.3542   -5.0711    0.0000 C   0  0  0  0  0  0  0  0  0  0  0  0
  1  2  1  0
  2  3  1  0
  3  4  1  0
  4  5  1  0
  5  6  1  0
  6  7  1  0
  7  8  2  0
  8  9  1  0
  9 10  2  0
 10 11  1  0
 11 12  2  0
 12 13  1  0
 13 14  2  0
  6 14  1  0
  9 14  1  0
  7 15  1  0
 15 16  1  0
 16 17  1  0
 17 18  1  0
 18 19  1  0
 19 20  1  0
 20 21  1  0
 21 22  2  0
 22 23  1  0
 23 24  2  0
 24 25  1  0
 25 26  2  0
 21 26  1  0
 24 27  1  0
 27 28  1  0
 27 29  1  0
 27 30  1  0
 30 31  1  0
 30 32  2  0
 18 33  1  0
 33 34  1  0
 15 34  1  0
M  END
>  <cdk:Title>  (234) 
Bilastine

>  <1A2>  (234) 
N

>  <2A6>  (234) 
N

>  <2B6>  (234) 
N

>  <2C8>  (234) 
N

>  <2C9>  (234) 
N

>  <2C19>  (234) 
N

>  <2D6>  (234) 
N

>  <2E1>  (234) 
N

>  <3A4>  (234) 
N

>  <Citation>  (234) 
Nucleic Acids Res. 2018. Jan 4;46(D1):D608-17. PMID:29140435
Nucleic Acids Res. 2018 Jan 4;46(D1):D1074-D1082. PMID:29126136
Nucleic Acids Res., 45:D380-388 (2017).  PMID:27924025
Nucleic Acids Res. 2016 Jan 4;44(D1):D1202-13. PMID:26400175

>  <ROMol>  (234) 
<rdkit.Chem.rdchem.Mol object at 0x7c2905d01770>

>  <Drug_like>  (234) 
True

$$$$
Dihydrozeatin
     RDKit          2D

 16 17  0  0  0  0  0  0  0  0999 V2000
   -5.8267    6.4105    0.0000 C   0  0  0  0  0  0  0  0  0  0  0  0
   -4.3495    6.1500    0.0000 C   0  0  0  0  0  0  0  0  0  0  0  0
   -2.2190    4.9200    0.0000 C   0  0  0  0  0  0  0  0  0  0  0  0
   -2.2190    3.4200    0.0000 C   0  0  0  0  0  0  0  0  0  0  0  0
   -0.9200    2.6700    0.0000 N   0  0  0  0  0  0  0  0  0  0  0  0
   -0.9200    1.1700    0.0000 C   0  0  0  0  0  0  0  0  0  0  0  0
    0.3800    0.4200    0.0000 C   0  0  0  0  0  0  0  0  0  0  0  0
    0.3800   -1.0800    0.0000 C   0  0  0  0  0  0  0  0  0  0  0  0
    1.9100   -1.4600    0.0000 N   0  0  0  0  0  0  0  0  0  0  0  0
    2.7300   -0.2100    0.0000 C   0  0  0  0  0  0  0  0  0  0  0  0
    1.7800    0.9600    0.0000 N   0  0  0  0  0  0  0  0  0  0  0  0
   -0.9200   -1.8300    0.0000 N   0  0  0  0  0  0  0  0  0  0  0  0
   -2.2200   -1.0800    0.0000 C   0  0  0  0  0  0  0  0  0  0  0  0
   -2.2200    0.4200    0.0000 N   0  0  0  0  0  0  0  0  0  0  0  0
   -4.3495    7.6500    0.0000 C   0  0  0  0  0  0  0  0  0  0  0  0
   -5.6485    8.4000    0.0000 O   0  0  0  0  0  0  0  0  0  0  0  0
  1  2  1  0
  2  3  1  0
  3  4  1  0
  4  5  1  0
  5  6  1  0
  6  7  2  0
  7  8  1  0
  8  9  1  0
  9 10  2  0
 10 11  1  0
  7 11  1  0
  8 12  2  0
 12 13  1  0
 13 14  2  0
  6 14  1  0
  2 15  1  0
 15 16  1  0
M  END
>  <cdk:Title>  (235) 
Dihydrozeatin

>  <1A2>  (235) 
N

>  <2A6>  (235) 
N

>  <2B6>  (235) 
N

>  <2C8>  (235) 
N

>  <2C9>  (235) 
N

>  <2C19>  (235) 
N

>  <2D6>  (235) 
N

>  <2E1>  (235) 
N

>  <3A4>  (235) 
N

>  <Citation>  (235) 
Nucleic Acids Res. 2018. Jan 4;46(D1):D608-17. PMID:29140435
Nucleic Acids Res. 2018 Jan 4;46(D1):D1074-D1082. PMID:29126136
Nucleic Acids Res., 45:D380-388 (2017).  PMID:27924025
Nucleic Acids Res. 2016 Jan 4;44(D1):D1202-13. PMID:26400175

>  <ROMol>  (235) 
<rdkit.Chem.rdchem.Mol object at 0x7c2905d018c0>

>  <Drug_like>  (235) 
True

$$$$
D-Leu-gly
     RDKit          2D

 13 12  0  0  0  0  0  0  0  0999 V2000
    2.2304   -1.3860    0.0000 N   0  0  0  0  0  0  0  0  0  0  0  0
    2.2304    0.1140    0.0000 C   0  0  0  0  0  0  0  0  0  0  0  0
    0.9314    0.8640    0.0000 O   0  0  0  0  0  0  0  0  0  0  0  0
    3.5294    0.8640    0.0000 C   0  0  0  0  0  0  0  0  0  0  0  0
    2.5653    2.0131    0.0000 N   0  0  0  0  0  0  0  0  0  0  0  0
    4.8285    0.1140    0.0000 C   0  0  0  0  0  0  0  0  0  0  0  0
    7.3746    1.5840    0.0000 C   0  0  0  0  0  0  0  0  0  0  0  0
    7.3746    3.0840    0.0000 C   0  0  0  0  0  0  0  0  0  0  0  0
    8.2160   -0.7276    0.0000 C   0  0  0  0  0  0  0  0  0  0  0  0
    0.9314   -2.1360    0.0000 C   0  0  0  0  0  0  0  0  0  0  0  0
    0.9314   -3.6360    0.0000 C   0  0  0  0  0  0  0  0  0  0  0  0
   -0.3677   -4.3860    0.0000 O   0  0  0  0  0  0  0  0  0  0  0  0
    2.2304   -4.3860    0.0000 O   0  0  0  0  0  0  0  0  0  0  0  0
  1  2  1  0
  2  3  2  0
  2  4  1  0
  4  5  1  0
  4  6  1  0
  6  7  1  0
  7  8  1  0
  7  9  1  0
  1 10  1  0
 10 11  1  0
 11 12  1  0
 11 13  2  0
M  END
>  <cdk:Title>  (236) 
D-Leu-gly

>  <1A2>  (236) 
N

>  <2A6>  (236) 
N

>  <2B6>  (236) 
N

>  <2C8>  (236) 
N

>  <2C9>  (236) 
N

>  <2C19>  (236) 
N

>  <2D6>  (236) 
N

>  <2E1>  (236) 
N

>  <3A4>  (236) 
N

>  <Citation>  (236) 
Nucleic Acids Res. 2018. Jan 4;46(D1):D608-17. PMID:29140435
Nucleic Acids Res. 2018 Jan 4;46(D1):D1074-D1082. PMID:29126136
Nucleic Acids Res., 45:D380-388 (2017).  PMID:27924025
Nucleic Acids Res. 2016 Jan 4;44(D1):D1202-13. PMID:26400175

>  <ROMol>  (236) 
<rdkit.Chem.rdchem.Mol object at 0x7c2905d01930>

>  <Drug_like>  (236) 
True

$$$$
2'-Deoxyuridylic acid
     RDKit          2D

 20 21  0  0  0  0  0  0  0  0999 V2000
    1.1792    7.6132    0.0000 O   0  0  0  0  0  0  0  0  0  0  0  0
    0.8576    6.1481    0.0000 C   0  0  0  0  0  0  0  0  0  0  0  0
   -0.5660    6.6206    0.0000 C   0  0  0  0  0  0  0  0  0  0  0  0
   -1.4499    5.4179    0.0000 C   0  0  0  0  0  0  0  0  0  0  0  0
   -0.5819    4.1920    0.0000 O   0  0  0  0  0  0  0  0  0  0  0  0
    0.8468    4.6555    0.0000 C   0  0  0  0  0  0  0  0  0  0  0  0
    2.8170    4.8526    0.0000 C   0  0  0  0  0  0  0  0  0  0  0  0
    3.4339    6.2199    0.0000 O   0  0  0  0  0  0  0  0  0  0  0  0
    4.9264    6.3692    0.0000 P   0  0  0  0  0  0  0  0  0  0  0  0
    5.8021    5.1513    0.0000 O   0  0  0  0  0  0  0  0  0  0  0  0
    4.5202    7.8132    0.0000 O   0  0  0  0  0  0  0  0  0  0  0  0
    6.2779    7.0201    0.0000 O   0  0  0  0  0  0  0  0  0  0  0  0
   -2.5746    4.4253    0.0000 N   0  0  0  0  0  0  0  0  0  0  0  0
   -2.2767    2.9543    0.0000 C   0  0  0  0  0  0  0  0  0  0  0  0
   -3.4014    1.9618    0.0000 C   0  0  0  0  0  0  0  0  0  0  0  0
   -4.8239    2.4402    0.0000 C   0  0  0  0  0  0  0  0  0  0  0  0
   -5.9486    1.4477    0.0000 O   0  0  0  0  0  0  0  0  0  0  0  0
   -5.1218    3.9112    0.0000 N   0  0  0  0  0  0  0  0  0  0  0  0
   -3.9971    4.9037    0.0000 C   0  0  0  0  0  0  0  0  0  0  0  0
   -4.2941    6.3740    0.0000 O   0  0  0  0  0  0  0  0  0  0  0  0
  1  2  1  0
  2  3  1  0
  3  4  1  0
  4  5  1  0
  5  6  1  0
  2  6  1  0
  6  7  1  0
  7  8  1  0
  8  9  1  0
  9 10  1  0
  9 11  1  0
  9 12  2  0
  4 13  1  0
 13 14  1  0
 14 15  2  0
 15 16  1  0
 16 17  2  0
 16 18  1  0
 18 19  1  0
 13 19  1  0
 19 20  2  0
M  END
>  <cdk:Title>  (237) 
2'-Deoxyuridylic acid

>  <1A2>  (237) 
N

>  <2A6>  (237) 
N

>  <2B6>  (237) 
N

>  <2C8>  (237) 
N

>  <2C9>  (237) 
N

>  <2C19>  (237) 
N

>  <2D6>  (237) 
N

>  <2E1>  (237) 
N

>  <3A4>  (237) 
N

>  <Citation>  (237) 
Nucleic Acids Res. 2018. Jan 4;46(D1):D608-17. PMID:29140435
Nucleic Acids Res. 2018 Jan 4;46(D1):D1074-D1082. PMID:29126136
Nucleic Acids Res., 45:D380-388 (2017).  PMID:27924025
Nucleic Acids Res. 2016 Jan 4;44(D1):D1202-13. PMID:26400175

>  <ROMol>  (237) 
<rdkit.Chem.rdchem.Mol object at 0x7c2905d01af0>

>  <Drug_like>  (237) 
True

$$$$
Methyl (Z)-5-(1-propynyl)-2-thienylacrylate
     RDKit          2D

 14 14  0  0  0  0  0  0  0  0999 V2000
    2.8820   -3.2492    0.0000 C   0  0  0  0  0  0  0  0  0  0  0  0
    1.4543   -3.7091    0.0000 C   0  0  0  0  0  0  0  0  0  0  0  0
    0.0266   -4.1691    0.0000 C   0  0  0  0  0  0  0  0  0  0  0  0
   -1.4012   -4.6291    0.0000 C   0  0  0  0  0  0  0  0  0  0  0  0
   -1.8612   -6.0491    0.0000 C   0  0  0  0  0  0  0  0  0  0  0  0
   -3.3612   -6.0491    0.0000 C   0  0  0  0  0  0  0  0  0  0  0  0
   -3.8212   -4.6291    0.0000 C   0  0  0  0  0  0  0  0  0  0  0  0
   -5.2489   -4.1691    0.0000 C   0  0  0  0  0  0  0  0  0  0  0  0
   -5.5644   -2.7027    0.0000 C   0  0  0  0  0  0  0  0  0  0  0  0
   -4.4522   -1.6962    0.0000 C   0  0  0  0  0  0  0  0  0  0  0  0
   -3.0245   -2.1562    0.0000 O   0  0  0  0  0  0  0  0  0  0  0  0
   -4.7677   -0.2298    0.0000 O   0  0  0  0  0  0  0  0  0  0  0  0
   -3.6555    0.7767    0.0000 C   0  0  0  0  0  0  0  0  0  0  0  0
   -2.6112   -3.7391    0.0000 S   0  0  0  0  0  0  0  0  0  0  0  0
  1  2  1  0
  2  3  3  0
  3  4  1  0
  4  5  2  0
  5  6  1  0
  6  7  2  0
  7  8  1  0
  8  9  2  0
  9 10  1  0
 10 11  2  0
 10 12  1  0
 12 13  1  0
  7 14  1  0
  4 14  1  0
M  END
>  <cdk:Title>  (238) 
Methyl (Z)-5-(1-propynyl)-2-thienylacrylate

>  <1A2>  (238) 
N

>  <2A6>  (238) 
N

>  <2B6>  (238) 
N

>  <2C8>  (238) 
N

>  <2C9>  (238) 
N

>  <2C19>  (238) 
N

>  <2D6>  (238) 
N

>  <2E1>  (238) 
N

>  <3A4>  (238) 
N

>  <Citation>  (238) 
Nucleic Acids Res. 2018. Jan 4;46(D1):D608-17. PMID:29140435
Nucleic Acids Res. 2018 Jan 4;46(D1):D1074-D1082. PMID:29126136
Nucleic Acids Res., 45:D380-388 (2017).  PMID:27924025
Nucleic Acids Res. 2016 Jan 4;44(D1):D1202-13. PMID:26400175

>  <ROMol>  (238) 
<rdkit.Chem.rdchem.Mol object at 0x7c2905d01b60>

>  <Drug_like>  (238) 
True

$$$$
Neryl isobutyrate
     RDKit          2D

 16 15  0  0  0  0  0  0  0  0999 V2000
   12.4009   -6.8510    0.0000 C   0  0  0  0  0  0  0  0  0  0  0  0
   11.1018   -6.1010    0.0000 C   0  0  0  0  0  0  0  0  0  0  0  0
   11.1018   -4.6010    0.0000 C   0  0  0  0  0  0  0  0  0  0  0  0
    9.8028   -6.8510    0.0000 C   0  0  0  0  0  0  0  0  0  0  0  0
    9.8028   -8.3510    0.0000 C   0  0  0  0  0  0  0  0  0  0  0  0
    8.5038   -9.1010    0.0000 C   0  0  0  0  0  0  0  0  0  0  0  0
    8.5038  -10.6010    0.0000 C   0  0  0  0  0  0  0  0  0  0  0  0
    7.2047  -11.3510    0.0000 C   0  0  0  0  0  0  0  0  0  0  0  0
    5.9057  -10.6010    0.0000 C   0  0  0  0  0  0  0  0  0  0  0  0
    5.9057   -9.1010    0.0000 O   0  0  0  0  0  0  0  0  0  0  0  0
    4.6066   -8.3510    0.0000 C   0  0  0  0  0  0  0  0  0  0  0  0
    4.6066   -6.8510    0.0000 C   0  0  0  0  0  0  0  0  0  0  0  0
    5.9057   -6.1010    0.0000 C   0  0  0  0  0  0  0  0  0  0  0  0
    3.1294   -7.1115    0.0000 C   0  0  0  0  0  0  0  0  0  0  0  0
    3.3076   -9.1010    0.0000 O   0  0  0  0  0  0  0  0  0  0  0  0
    9.8028  -11.3510    0.0000 C   0  0  0  0  0  0  0  0  0  0  0  0
  1  2  1  0
  2  3  1  0
  2  4  2  0
  4  5  1  0
  5  6  1  0
  6  7  1  0
  7  8  2  0
  8  9  1  0
  9 10  1  0
 10 11  1  0
 11 12  1  0
 12 13  1  0
 12 14  1  0
 11 15  2  0
  7 16  1  0
M  END
>  <cdk:Title>  (239) 
Neryl isobutyrate

>  <1A2>  (239) 
N

>  <2A6>  (239) 
N

>  <2B6>  (239) 
N

>  <2C8>  (239) 
N

>  <2C9>  (239) 
N

>  <2C19>  (239) 
N

>  <2D6>  (239) 
N

>  <2E1>  (239) 
N

>  <3A4>  (239) 
N

>  <Citation>  (239) 
Nucleic Acids Res. 2018. Jan 4;46(D1):D608-17. PMID:29140435
Nucleic Acids Res. 2018 Jan 4;46(D1):D1074-D1082. PMID:29126136
Nucleic Acids Res., 45:D380-388 (2017).  PMID:27924025
Nucleic Acids Res. 2016 Jan 4;44(D1):D1202-13. PMID:26400175

>  <ROMol>  (239) 
<rdkit.Chem.rdchem.Mol object at 0x7c2905d01bd0>

>  <Drug_like>  (239) 
True

$$$$
Methyl beta-naphthyl ketone
     RDKit          2D

 13 14  0  0  0  0  0  0  0  0999 V2000
    4.8381    0.6104    0.0000 C   0  0  0  0  0  0  0  0  0  0  0  0
    3.5389    1.3602    0.0000 C   0  0  0  0  0  0  0  0  0  0  0  0
    2.2400    0.6100    0.0000 C   0  0  0  0  0  0  0  0  0  0  0  0
    2.2400   -0.8900    0.0000 C   0  0  0  0  0  0  0  0  0  0  0  0
    0.9400   -1.6400    0.0000 C   0  0  0  0  0  0  0  0  0  0  0  0
   -0.3500   -0.8900    0.0000 C   0  0  0  0  0  0  0  0  0  0  0  0
   -1.6500   -1.6400    0.0000 C   0  0  0  0  0  0  0  0  0  0  0  0
   -2.9500   -0.8900    0.0000 C   0  0  0  0  0  0  0  0  0  0  0  0
   -2.9500    0.6100    0.0000 C   0  0  0  0  0  0  0  0  0  0  0  0
   -1.6500    1.3600    0.0000 C   0  0  0  0  0  0  0  0  0  0  0  0
   -0.3500    0.6100    0.0000 C   0  0  0  0  0  0  0  0  0  0  0  0
    0.9400    1.3600    0.0000 C   0  0  0  0  0  0  0  0  0  0  0  0
    3.5387    2.8602    0.0000 O   0  0  0  0  0  0  0  0  0  0  0  0
  1  2  1  0
  2  3  1  0
  3  4  2  0
  4  5  1  0
  5  6  2  0
  6  7  1  0
  7  8  2  0
  8  9  1  0
  9 10  2  0
 10 11  1  0
  6 11  1  0
 11 12  2  0
  3 12  1  0
  2 13  2  0
M  END
>  <cdk:Title>  (240) 
Methyl beta-naphthyl ketone

>  <1A2>  (240) 
N

>  <2A6>  (240) 
N

>  <2B6>  (240) 
N

>  <2C8>  (240) 
N

>  <2C9>  (240) 
N

>  <2C19>  (240) 
N

>  <2D6>  (240) 
N

>  <2E1>  (240) 
N

>  <3A4>  (240) 
N

>  <Citation>  (240) 
Nucleic Acids Res. 2018. Jan 4;46(D1):D608-17. PMID:29140435
Nucleic Acids Res. 2018 Jan 4;46(D1):D1074-D1082. PMID:29126136
Nucleic Acids Res., 45:D380-388 (2017).  PMID:27924025
Nucleic Acids Res. 2016 Jan 4;44(D1):D1202-13. PMID:26400175

>  <ROMol>  (240) 
<rdkit.Chem.rdchem.Mol object at 0x7c2905d01c40>

>  <Drug_like>  (240) 
True

$$$$
Aspidospermatine
     RDKit          2D

 25 29  0  0  0  0  0  0  0  0999 V2000
    5.7888    1.3368    0.0000 C   0  0  0  0  0  0  0  0  0  0  0  0
    2.9120    1.9429    0.0000 C   0  0  0  0  0  0  0  0  0  0  0  0
    0.9487   -0.2455    0.0000 C   0  0  0  0  0  0  0  0  0  0  0  0
    1.4187   -1.6755    0.0000 C   0  0  0  0  0  0  0  0  0  0  0  0
    2.4187   -0.5555    0.0000 C   0  0  0  0  0  0  0  0  0  0  0  0
   -0.2613    2.4845    0.0000 C   0  0  0  0  0  0  0  0  0  0  0  0
   -1.2613    1.3645    0.0000 N   0  0  0  0  0  0  0  0  0  0  0  0
   -2.7313    1.0545    0.0000 C   0  0  0  0  0  0  0  0  0  0  0  0
   -2.8913   -0.4355    0.0000 C   0  0  0  0  0  0  0  0  0  0  0  0
   -1.5213   -1.0455    0.0000 C   0  0  0  0  0  0  0  0  0  0  0  0
   -3.0213   -1.0455    0.0000 C   0  0  0  0  0  0  0  0  0  0  0  0
   -4.0213    0.0645    0.0000 C   0  0  0  0  0  0  0  0  0  0  0  0
   -5.4913   -0.2455    0.0000 C   0  0  0  0  0  0  0  0  0  0  0  0
   -5.9513   -1.6755    0.0000 C   0  0  0  0  0  0  0  0  0  0  0  0
   -4.9513   -2.7855    0.0000 C   0  0  0  0  0  0  0  0  0  0  0  0
   -3.4813   -2.4755    0.0000 C   0  0  0  0  0  0  0  0  0  0  0  0
   -2.2713   -3.3555    0.0000 N   0  0  0  0  0  0  0  0  0  0  0  0
   -2.2743   -4.8555    0.0000 C   0  0  0  0  0  0  0  0  0  0  0  0
   -3.5748   -5.6030    0.0000 C   0  0  0  0  0  0  0  0  0  0  0  0
   -0.9767   -5.6081    0.0000 O   0  0  0  0  0  0  0  0  0  0  0  0
   -1.0513   -2.4755    0.0000 C   0  0  0  0  0  0  0  0  0  0  0  0
    0.4087   -2.7855    0.0000 C   0  0  0  0  0  0  0  0  0  0  0  0
   -5.4158   -4.2118    0.0000 O   0  0  0  0  0  0  0  0  0  0  0  0
   -6.8832   -4.5227    0.0000 C   0  0  0  0  0  0  0  0  0  0  0  0
   -0.5113    0.0645    0.0000 C   0  0  0  0  0  0  0  0  0  0  0  0
  1  2  1  0
  2  3  2  0
  3  4  1  0
  4  5  1  0
  5  6  1  0
  6  7  1  0
  7  8  1  0
  8  9  1  0
 10  9  1  6
 10 11  1  0
 11 12  2  0
 12 13  1  0
 13 14  2  0
 14 15  1  0
 15 16  2  0
 11 16  1  0
 16 17  1  0
 17 18  1  0
 18 19  1  0
 18 20  2  0
 17 21  1  0
 10 21  1  0
 21 22  1  0
  4 22  1  0
 15 23  1  0
 23 24  1  0
 10 25  1  0
  3 25  1  0
  7 25  1  0
M  END
>  <cdk:Title>  (241) 
Aspidospermatine

>  <1A2>  (241) 
N

>  <2A6>  (241) 
N

>  <2B6>  (241) 
N

>  <2C8>  (241) 
N

>  <2C9>  (241) 
N

>  <2C19>  (241) 
N

>  <2D6>  (241) 
N

>  <2E1>  (241) 
N

>  <3A4>  (241) 
N

>  <Citation>  (241) 
Nucleic Acids Res. 2018. Jan 4;46(D1):D608-17. PMID:29140435
Nucleic Acids Res. 2018 Jan 4;46(D1):D1074-D1082. PMID:29126136
Nucleic Acids Res., 45:D380-388 (2017).  PMID:27924025
Nucleic Acids Res. 2016 Jan 4;44(D1):D1202-13. PMID:26400175

>  <ROMol>  (241) 
<rdkit.Chem.rdchem.Mol object at 0x7c2905d01cb0>

>  <Drug_like>  (241) 
True

$$$$
2_5-Furandicarboxylic acid
     RDKit          2D

 11 11  0  0  0  0  0  0  0  0999 V2000
    2.9461    2.0029    0.0000 O   0  0  0  0  0  0  0  0  0  0  0  0
    2.6360    0.5353    0.0000 C   0  0  0  0  0  0  0  0  0  0  0  0
    3.7520   -0.4670    0.0000 O   0  0  0  0  0  0  0  0  0  0  0  0
    1.2100    0.0700    0.0000 C   0  0  0  0  0  0  0  0  0  0  0  0
    0.0000    0.9500    0.0000 O   0  0  0  0  0  0  0  0  0  0  0  0
   -1.2100    0.0700    0.0000 C   0  0  0  0  0  0  0  0  0  0  0  0
   -2.6360    0.5353    0.0000 C   0  0  0  0  0  0  0  0  0  0  0  0
   -3.7520   -0.4670    0.0000 O   0  0  0  0  0  0  0  0  0  0  0  0
   -2.9461    2.0029    0.0000 O   0  0  0  0  0  0  0  0  0  0  0  0
   -0.7500   -1.3600    0.0000 C   0  0  0  0  0  0  0  0  0  0  0  0
    0.7500   -1.3600    0.0000 C   0  0  0  0  0  0  0  0  0  0  0  0
  1  2  1  0
  2  3  2  0
  2  4  1  0
  4  5  1  0
  5  6  1  0
  6  7  1  0
  7  8  1  0
  7  9  2  0
  6 10  2  0
 10 11  1  0
  4 11  2  0
M  END
>  <cdk:Title>  (242) 
2_5-Furandicarboxylic acid

>  <1A2>  (242) 
N

>  <2A6>  (242) 
N

>  <2B6>  (242) 
N

>  <2C8>  (242) 
N

>  <2C9>  (242) 
N

>  <2C19>  (242) 
N

>  <2D6>  (242) 
N

>  <2E1>  (242) 
N

>  <3A4>  (242) 
N

>  <Citation>  (242) 
Nucleic Acids Res. 2018. Jan 4;46(D1):D608-17. PMID:29140435
Nucleic Acids Res. 2018 Jan 4;46(D1):D1074-D1082. PMID:29126136
Nucleic Acids Res., 45:D380-388 (2017).  PMID:27924025
Nucleic Acids Res. 2016 Jan 4;44(D1):D1202-13. PMID:26400175

>  <ROMol>  (242) 
<rdkit.Chem.rdchem.Mol object at 0x7c2905d01d20>

>  <Drug_like>  (242) 
True

$$$$
5a-Androstan-3b-ol
     RDKit          2D

 20 23  0  0  0  0  0  0  0  0999 V2000
   -2.1410   -4.3355    0.0000 C   0  0  0  0  0  0  0  0  0  0  0  0
   -2.1410   -5.8355    0.0000 C   0  0  0  0  0  0  0  0  0  0  0  0
   -0.8410   -6.5855    0.0000 C   0  0  0  0  0  0  0  0  0  0  0  0
    0.4590   -5.8355    0.0000 C   0  0  0  0  0  0  0  0  0  0  0  0
    0.4590   -4.3355    0.0000 C   0  0  0  0  0  0  0  0  0  0  0  0
   -0.8410   -3.5855    0.0000 C   0  0  0  0  0  0  0  0  0  0  0  0
    0.8029   -2.3856    0.0000 C   0  0  0  0  0  0  0  0  0  0  0  0
    1.7590   -3.5855    0.0000 C   0  0  0  0  0  0  0  0  0  0  0  0
    3.0590   -4.3355    0.0000 C   0  0  0  0  0  0  0  0  0  0  0  0
    3.0590   -5.8355    0.0000 C   0  0  0  0  0  0  0  0  0  0  0  0
    1.7590   -6.5855    0.0000 C   0  0  0  0  0  0  0  0  0  0  0  0
    4.3590   -3.5855    0.0000 C   0  0  0  0  0  0  0  0  0  0  0  0
    4.3590   -2.0855    0.0000 C   0  0  0  0  0  0  0  0  0  0  0  0
    3.0590   -1.3355    0.0000 C   0  0  0  0  0  0  0  0  0  0  0  0
    1.7590   -2.0855    0.0000 C   0  0  0  0  0  0  0  0  0  0  0  0
    4.6702    0.8380    0.0000 C   0  0  0  0  0  0  0  0  0  0  0  0
    5.7890   -1.6255    0.0000 C   0  0  0  0  0  0  0  0  0  0  0  0
    6.6690   -2.8355    0.0000 C   0  0  0  0  0  0  0  0  0  0  0  0
    5.7890   -4.0555    0.0000 C   0  0  0  0  0  0  0  0  0  0  0  0
   -3.6182   -5.5752    0.0000 O   0  0  0  0  0  0  0  0  0  0  0  0
  1  2  1  0
  2  3  1  0
  3  4  1  0
  4  5  1  0
  5  6  1  0
  1  6  1  0
  5  7  1  1
  5  8  1  0
  8  9  1  0
  9 10  1  0
 10 11  1  0
  4 11  1  0
  9 12  1  0
 12 13  1  0
 13 14  1  0
 14 15  1  0
  8 15  1  0
 13 16  1  1
 13 17  1  0
 17 18  1  0
 18 19  1  0
 12 19  1  0
  2 20  1  0
M  END
>  <cdk:Title>  (243) 
5a-Androstan-3b-ol

>  <1A2>  (243) 
N

>  <2A6>  (243) 
N

>  <2B6>  (243) 
N

>  <2C8>  (243) 
N

>  <2C9>  (243) 
N

>  <2C19>  (243) 
N

>  <2D6>  (243) 
N

>  <2E1>  (243) 
N

>  <3A4>  (243) 
N

>  <Citation>  (243) 
Nucleic Acids Res. 2018. Jan 4;46(D1):D608-17. PMID:29140435
Nucleic Acids Res. 2018 Jan 4;46(D1):D1074-D1082. PMID:29126136
Nucleic Acids Res., 45:D380-388 (2017).  PMID:27924025
Nucleic Acids Res. 2016 Jan 4;44(D1):D1202-13. PMID:26400175

>  <ROMol>  (243) 
<rdkit.Chem.rdchem.Mol object at 0x7c2905d01d90>

>  <Drug_like>  (243) 
True

$$$$
56633-75-1
     RDKit          2D

  9  9  0  0  0  0  0  0  0  0999 V2000
    3.0428   -0.0669    0.0000 O   0  0  0  0  0  0  0  0  0  0  0  0
    1.9283    0.9370    0.0000 C   0  0  0  0  0  0  0  0  0  0  0  0
    0.5016    0.4737    0.0000 C   0  0  0  0  0  0  0  0  0  0  0  0
   -0.6129    1.4775    0.0000 C   0  0  0  0  0  0  0  0  0  0  0  0
   -1.4929    2.6875    0.0000 C   0  0  0  0  0  0  0  0  0  0  0  0
   -2.9229    2.2275    0.0000 C   0  0  0  0  0  0  0  0  0  0  0  0
   -2.9229    0.7275    0.0000 C   0  0  0  0  0  0  0  0  0  0  0  0
   -1.4929    0.2675    0.0000 N   0  0  0  0  0  0  0  0  0  0  0  0
    2.2404    2.4041    0.0000 O   0  0  0  0  0  0  0  0  0  0  0  0
  1  2  1  0
  2  3  1  0
  3  4  1  0
  4  5  1  0
  5  6  1  0
  6  7  1  0
  7  8  1  0
  4  8  1  0
  2  9  2  0
M  END
>  <cdk:Title>  (244) 
56633-75-1

>  <1A2>  (244) 
N

>  <2A6>  (244) 
N

>  <2B6>  (244) 
N

>  <2C8>  (244) 
N

>  <2C9>  (244) 
N

>  <2C19>  (244) 
N

>  <2D6>  (244) 
N

>  <2E1>  (244) 
N

>  <3A4>  (244) 
N

>  <Citation>  (244) 
Nucleic Acids Res. 2018. Jan 4;46(D1):D608-17. PMID:29140435
Nucleic Acids Res. 2018 Jan 4;46(D1):D1074-D1082. PMID:29126136
Nucleic Acids Res., 45:D380-388 (2017).  PMID:27924025
Nucleic Acids Res. 2016 Jan 4;44(D1):D1202-13. PMID:26400175

>  <ROMol>  (244) 
<rdkit.Chem.rdchem.Mol object at 0x7c2905d01e00>

>  <Drug_like>  (244) 
True

$$$$
Acetamidopropanal
     RDKit          2D

  8  7  0  0  0  0  0  0  0  0999 V2000
    2.5981    2.2500    0.0000 C   0  0  0  0  0  0  0  0  0  0  0  0
    3.8971    1.5000    0.0000 C   0  0  0  0  0  0  0  0  0  0  0  0
    5.1962    2.2500    0.0000 O   0  0  0  0  0  0  0  0  0  0  0  0
    3.8971   -0.0000    0.0000 N   0  0  0  0  0  0  0  0  0  0  0  0
    5.1962   -0.7500    0.0000 C   0  0  0  0  0  0  0  0  0  0  0  0
    5.1962   -2.2500    0.0000 C   0  0  0  0  0  0  0  0  0  0  0  0
    6.4952   -3.0000    0.0000 C   0  0  0  0  0  0  0  0  0  0  0  0
    6.4952   -4.5000    0.0000 O   0  0  0  0  0  0  0  0  0  0  0  0
  1  2  1  0
  2  3  2  0
  2  4  1  0
  4  5  1  0
  5  6  1  0
  6  7  1  0
  7  8  2  0
M  END
>  <cdk:Title>  (245) 
Acetamidopropanal

>  <1A2>  (245) 
N

>  <2A6>  (245) 
N

>  <2B6>  (245) 
N

>  <2C8>  (245) 
N

>  <2C9>  (245) 
N

>  <2C19>  (245) 
N

>  <2D6>  (245) 
N

>  <2E1>  (245) 
N

>  <3A4>  (245) 
N

>  <Citation>  (245) 
Nucleic Acids Res. 2018. Jan 4;46(D1):D608-17. PMID:29140435
Nucleic Acids Res. 2018 Jan 4;46(D1):D1074-D1082. PMID:29126136
Nucleic Acids Res., 45:D380-388 (2017).  PMID:27924025
Nucleic Acids Res. 2016 Jan 4;44(D1):D1202-13. PMID:26400175

>  <ROMol>  (245) 
<rdkit.Chem.rdchem.Mol object at 0x7c2905d01e70>

>  <Drug_like>  (245) 
True

$$$$
(3R)-3-Amino-3-{[(1S)-1-carboxy-2-(1H-indol-3-yl)ethyl]-C-hydroxycarbonimidoyl}p
     RDKit          2D

 23 24  0  0  0  0  0  0  0  0999 V2000
   -3.4597    0.3036    0.0000 C   0  0  0  0  0  0  0  0  0  0  0  0
   -3.4697   -1.1964    0.0000 C   0  0  0  0  0  0  0  0  0  0  0  0
   -2.1697   -1.9564    0.0000 C   0  0  0  0  0  0  0  0  0  0  0  0
   -0.8697   -1.2064    0.0000 C   0  0  0  0  0  0  0  0  0  0  0  0
   -0.8597    0.2936    0.0000 C   0  0  0  0  0  0  0  0  0  0  0  0
   -2.1597    1.0436    0.0000 C   0  0  0  0  0  0  0  0  0  0  0  0
    0.5603    0.7436    0.0000 C   0  0  0  0  0  0  0  0  0  0  0  0
    1.4403   -0.4664    0.0000 C   0  0  0  0  0  0  0  0  0  0  0  0
    0.5603   -1.6764    0.0000 N   0  0  0  0  0  0  0  0  0  0  0  0
    1.1786    2.6246    0.0000 C   0  0  0  0  0  0  0  0  0  0  0  0
    2.6468    2.9315    0.0000 C   0  0  0  0  0  0  0  0  0  0  0  0
    2.6941    1.4322    0.0000 C   0  0  0  0  0  0  0  0  0  0  0  0
    1.4193    0.6417    0.0000 O   0  0  0  0  0  0  0  0  0  0  0  0
    4.0161    0.7235    0.0000 O   0  0  0  0  0  0  0  0  0  0  0  0
    3.1152    4.3565    0.0000 N   0  0  0  0  0  0  0  0  0  0  0  0
    4.5835    4.6634    0.0000 C   0  0  0  0  0  0  0  0  0  0  0  0
    5.5834    3.5452    0.0000 O   0  0  0  0  0  0  0  0  0  0  0  0
    5.0518    6.0884    0.0000 C   0  0  0  0  0  0  0  0  0  0  0  0
    5.0046    7.5876    0.0000 N   0  0  0  0  0  0  0  0  0  0  0  0
    7.4598    6.5917    0.0000 C   0  0  0  0  0  0  0  0  0  0  0  0
    7.9282    8.0167    0.0000 C   0  0  0  0  0  0  0  0  0  0  0  0
    6.9283    9.1348    0.0000 O   0  0  0  0  0  0  0  0  0  0  0  0
    9.3964    8.3235    0.0000 O   0  0  0  0  0  0  0  0  0  0  0  0
  1  2  2  0
  2  3  1  0
  3  4  2  0
  4  5  1  0
  5  6  2  0
  1  6  1  0
  5  7  1  0
  7  8  2  0
  8  9  1  0
  4  9  1  0
  7 10  1  0
 10 11  1  0
 11 12  1  0
 12 13  2  0
 12 14  1  0
 11 15  1  0
 15 16  1  0
 16 17  2  0
 16 18  1  0
 18 19  1  0
 18 20  1  0
 20 21  1  0
 21 22  2  0
 21 23  1  0
M  END
>  <cdk:Title>  (246) 
(3R)-3-Amino-3-{[(1S)-1-carboxy-2-(1H-indol-3-yl)ethyl]-C-hydroxycarbonimidoyl}propanoic acid

>  <1A2>  (246) 
N

>  <2A6>  (246) 
N

>  <2B6>  (246) 
N

>  <2C8>  (246) 
N

>  <2C9>  (246) 
N

>  <2C19>  (246) 
N

>  <2D6>  (246) 
N

>  <2E1>  (246) 
N

>  <3A4>  (246) 
N

>  <Citation>  (246) 
Nucleic Acids Res. 2018. Jan 4;46(D1):D608-17. PMID:29140435
Nucleic Acids Res. 2018 Jan 4;46(D1):D1074-D1082. PMID:29126136
Nucleic Acids Res., 45:D380-388 (2017).  PMID:27924025
Nucleic Acids Res. 2016 Jan 4;44(D1):D1202-13. PMID:26400175

>  <ROMol>  (246) 
<rdkit.Chem.rdchem.Mol object at 0x7c2905d01ee0>

>  <Drug_like>  (246) 
True

$$$$
20alpha-Hydroxycholesterol
     RDKit          2D

 29 32  0  0  0  0  0  0  0  0999 V2000
    6.8582    5.9720    0.0000 C   0  0  0  0  0  0  0  0  0  0  0  0
    8.4105    4.0636    0.0000 C   0  0  0  0  0  0  0  0  0  0  0  0
    9.6979    3.2938    0.0000 C   0  0  0  0  0  0  0  0  0  0  0  0
    7.1001    3.3335    0.0000 C   0  0  0  0  0  0  0  0  0  0  0  0
    7.0771    1.8337    0.0000 C   0  0  0  0  0  0  0  0  0  0  0  0
    5.3475    0.8701    0.0000 C   0  0  0  0  0  0  0  0  0  0  0  0
    5.3025   -2.0696    0.0000 C   0  0  0  0  0  0  0  0  0  0  0  0
    6.1084   -4.3938    0.0000 C   0  0  0  0  0  0  0  0  0  0  0  0
    6.7835   -1.8318    0.0000 O   0  0  0  0  0  0  0  0  0  0  0  0
    3.1535   -3.2668    0.0000 C   0  0  0  0  0  0  0  0  0  0  0  0
    2.5667   -1.9158    0.0000 C   0  0  0  0  0  0  0  0  0  0  0  0
    1.1127   -2.0038    0.0000 C   0  0  0  0  0  0  0  0  0  0  0  0
    0.7598   -3.4671    0.0000 C   0  0  0  0  0  0  0  0  0  0  0  0
   -0.5208   -4.1681    0.0000 C   0  0  0  0  0  0  0  0  0  0  0  0
   -1.8218   -3.3629    0.0000 C   0  0  0  0  0  0  0  0  0  0  0  0
   -3.1594   -4.0991    0.0000 C   0  0  0  0  0  0  0  0  0  0  0  0
   -3.2059   -5.5993    0.0000 C   0  0  0  0  0  0  0  0  0  0  0  0
   -4.5119   -6.2845    0.0000 C   0  0  0  0  0  0  0  0  0  0  0  0
   -4.5636   -7.7931    0.0000 C   0  0  0  0  0  0  0  0  0  0  0  0
   -5.1212   -9.1856    0.0000 O   0  0  0  0  0  0  0  0  0  0  0  0
   -3.2626   -8.5983    0.0000 C   0  0  0  0  0  0  0  0  0  0  0  0
   -1.9610   -7.8633    0.0000 C   0  0  0  0  0  0  0  0  0  0  0  0
   -1.9049   -6.4045    0.0000 C   0  0  0  0  0  0  0  0  0  0  0  0
    0.2981   -8.3513    0.0000 C   0  0  0  0  0  0  0  0  0  0  0  0
   -0.6085   -5.6779    0.0000 C   0  0  0  0  0  0  0  0  0  0  0  0
    0.6415   -6.4516    0.0000 C   0  0  0  0  0  0  0  0  0  0  0  0
    1.9877   -5.7206    0.0000 C   0  0  0  0  0  0  0  0  0  0  0  0
    2.0098   -4.2407    0.0000 C   0  0  0  0  0  0  0  0  0  0  0  0
    4.2353   -5.2889    0.0000 C   0  0  0  0  0  0  0  0  0  0  0  0
  1  2  1  0
  2  3  1  0
  2  4  1  0
  4  5  1  0
  5  6  1  0
  6  7  1  0
  7  8  1  6
  7  9  1  0
  7 10  1  0
 10 11  1  0
 11 12  1  0
 12 13  1  0
 13 14  1  0
 14 15  1  0
 15 16  1  0
 16 17  2  0
 17 18  1  0
 18 19  1  0
 19 20  1  0
 19 21  1  0
 21 22  1  0
 22 23  1  0
 17 23  1  0
 23 24  1  1
 23 25  1  0
 14 25  1  0
 25 26  1  0
 26 27  1  0
 27 28  1  0
 10 28  1  0
 13 28  1  0
 28 29  1  1
M  END
>  <cdk:Title>  (247) 
20alpha-Hydroxycholesterol

>  <1A2>  (247) 
N

>  <2A6>  (247) 
N

>  <2B6>  (247) 
N

>  <2C8>  (247) 
N

>  <2C9>  (247) 
N

>  <2C19>  (247) 
N

>  <2D6>  (247) 
N

>  <2E1>  (247) 
N

>  <3A4>  (247) 
N

>  <Citation>  (247) 
Nucleic Acids Res. 2018. Jan 4;46(D1):D608-17. PMID:29140435
Nucleic Acids Res. 2018 Jan 4;46(D1):D1074-D1082. PMID:29126136
Nucleic Acids Res., 45:D380-388 (2017).  PMID:27924025
Nucleic Acids Res. 2016 Jan 4;44(D1):D1202-13. PMID:26400175

>  <ROMol>  (247) 
<rdkit.Chem.rdchem.Mol object at 0x7c2905d01f50>

>  <Drug_like>  (247) 
True

$$$$
4'_5_7-Trimethylapigenin
     RDKit          2D

 23 25  0  0  0  0  0  0  0  0999 V2000
    9.1091    3.0481    0.0000 C   0  0  0  0  0  0  0  0  0  0  0  0
    7.8002    3.7808    0.0000 O   0  0  0  0  0  0  0  0  0  0  0  0
    6.5113    3.0135    0.0000 C   0  0  0  0  0  0  0  0  0  0  0  0
    5.1575    3.7566    0.0000 C   0  0  0  0  0  0  0  0  0  0  0  0
    3.8913    3.0002    0.0000 C   0  0  0  0  0  0  0  0  0  0  0  0
    3.8989    1.5002    0.0000 C   0  0  0  0  0  0  0  0  0  0  0  0
    5.1727    0.7567    0.0000 C   0  0  0  0  0  0  0  0  0  0  0  0
    6.5189    1.5135    0.0000 C   0  0  0  0  0  0  0  0  0  0  0  0
    2.6000    0.7500    0.0000 C   0  0  0  0  0  0  0  0  0  0  0  0
    2.6000   -0.7500    0.0000 C   0  0  0  0  0  0  0  0  0  0  0  0
    1.3000   -1.5000    0.0000 C   0  0  0  0  0  0  0  0  0  0  0  0
    0.0000   -0.7500    0.0000 C   0  0  0  0  0  0  0  0  0  0  0  0
   -1.3000   -1.5000    0.0000 C   0  0  0  0  0  0  0  0  0  0  0  0
   -2.6000   -0.7500    0.0000 C   0  0  0  0  0  0  0  0  0  0  0  0
   -2.6000    0.7500    0.0000 C   0  0  0  0  0  0  0  0  0  0  0  0
   -1.3000    1.5000    0.0000 C   0  0  0  0  0  0  0  0  0  0  0  0
    0.0000    0.7500    0.0000 C   0  0  0  0  0  0  0  0  0  0  0  0
    1.3000    1.5000    0.0000 O   0  0  0  0  0  0  0  0  0  0  0  0
   -3.8989    1.5002    0.0000 O   0  0  0  0  0  0  0  0  0  0  0  0
   -5.1981    0.7504    0.0000 C   0  0  0  0  0  0  0  0  0  0  0  0
   -1.3000   -3.0000    0.0000 O   0  0  0  0  0  0  0  0  0  0  0  0
   -2.5990   -3.7500    0.0000 C   0  0  0  0  0  0  0  0  0  0  0  0
    1.3000   -3.0000    0.0000 O   0  0  0  0  0  0  0  0  0  0  0  0
  1  2  1  0
  2  3  1  0
  3  4  2  0
  4  5  1  0
  5  6  2  0
  6  7  1  0
  7  8  2  0
  3  8  1  0
  6  9  1  0
  9 10  2  0
 10 11  1  0
 11 12  1  0
 12 13  2  0
 13 14  1  0
 14 15  2  0
 15 16  1  0
 16 17  2  0
 12 17  1  0
 17 18  1  0
  9 18  1  0
 15 19  1  0
 19 20  1  0
 13 21  1  0
 21 22  1  0
 11 23  2  0
M  END
>  <cdk:Title>  (248) 
4'_5_7-Trimethylapigenin

>  <1A2>  (248) 
N

>  <2A6>  (248) 
N

>  <2B6>  (248) 
N

>  <2C8>  (248) 
N

>  <2C9>  (248) 
N

>  <2C19>  (248) 
N

>  <2D6>  (248) 
N

>  <2E1>  (248) 
N

>  <3A4>  (248) 
N

>  <Citation>  (248) 
Nucleic Acids Res. 2018. Jan 4;46(D1):D608-17. PMID:29140435
Nucleic Acids Res. 2018 Jan 4;46(D1):D1074-D1082. PMID:29126136
Nucleic Acids Res., 45:D380-388 (2017).  PMID:27924025
Nucleic Acids Res. 2016 Jan 4;44(D1):D1202-13. PMID:26400175

>  <ROMol>  (248) 
<rdkit.Chem.rdchem.Mol object at 0x7c2905d01fc0>

>  <Drug_like>  (248) 
True

$$$$
N3_ N4-Dimethylarginine
     RDKit          2D

 14 13  0  0  0  0  0  0  0  0999 V2000
   12.9904   -0.0000    0.0000 C   0  0  0  0  0  0  0  0  0  0  0  0
   11.6913   -0.7500    0.0000 N   0  0  0  0  0  0  0  0  0  0  0  0
   10.3923   -0.0000    0.0000 C   0  0  0  0  0  0  0  0  0  0  0  0
    9.0933   -0.7500    0.0000 N   0  0  0  0  0  0  0  0  0  0  0  0
    7.7942   -0.0000    0.0000 C   0  0  0  0  0  0  0  0  0  0  0  0
    6.4952   -0.7500    0.0000 C   0  0  0  0  0  0  0  0  0  0  0  0
    4.3648    0.4800    0.0000 C   0  0  0  0  0  0  0  0  0  0  0  0
    3.0657   -0.2700    0.0000 C   0  0  0  0  0  0  0  0  0  0  0  0
    2.1015   -1.4191    0.0000 N   0  0  0  0  0  0  0  0  0  0  0  0
    1.7667    0.4800    0.0000 C   0  0  0  0  0  0  0  0  0  0  0  0
    0.4677   -0.2700    0.0000 O   0  0  0  0  0  0  0  0  0  0  0  0
    1.7667    1.9800    0.0000 O   0  0  0  0  0  0  0  0  0  0  0  0
   10.3923    1.5000    0.0000 N   0  0  0  0  0  0  0  0  0  0  0  0
   11.6913    2.2500    0.0000 C   0  0  0  0  0  0  0  0  0  0  0  0
  1  2  1  0
  2  3  1  0
  3  4  1  0
  4  5  1  0
  5  6  1  0
  6  7  1  0
  7  8  1  0
  8  9  1  0
  8 10  1  0
 10 11  1  0
 10 12  2  0
  3 13  2  0
 13 14  1  0
M  END
>  <cdk:Title>  (249) 
N3_ N4-Dimethylarginine

>  <1A2>  (249) 
N

>  <2A6>  (249) 
N

>  <2B6>  (249) 
N

>  <2C8>  (249) 
N

>  <2C9>  (249) 
N

>  <2C19>  (249) 
N

>  <2D6>  (249) 
N

>  <2E1>  (249) 
N

>  <3A4>  (249) 
N

>  <Citation>  (249) 
Nucleic Acids Res. 2018. Jan 4;46(D1):D608-17. PMID:29140435
Nucleic Acids Res. 2018 Jan 4;46(D1):D1074-D1082. PMID:29126136
Nucleic Acids Res., 45:D380-388 (2017).  PMID:27924025
Nucleic Acids Res. 2016 Jan 4;44(D1):D1202-13. PMID:26400175

>  <ROMol>  (249) 
<rdkit.Chem.rdchem.Mol object at 0x7c2905d020a0>

>  <Drug_like>  (249) 
True

$$$$
Citpressine II
     RDKit          2D

 23 25  0  0  0  0  0  0  0  0999 V2000
    3.9000    0.7500    0.0000 C   0  0  0  0  0  0  0  0  0  0  0  0
    2.6000    1.5000    0.0000 C   0  0  0  0  0  0  0  0  0  0  0  0
    1.3000    0.7500    0.0000 C   0  0  0  0  0  0  0  0  0  0  0  0
    1.3000   -0.7500    0.0000 C   0  0  0  0  0  0  0  0  0  0  0  0
    2.6000   -1.5000    0.0000 C   0  0  0  0  0  0  0  0  0  0  0  0
    3.9000   -0.7500    0.0000 C   0  0  0  0  0  0  0  0  0  0  0  0
    5.1989   -1.5002    0.0000 O   0  0  0  0  0  0  0  0  0  0  0  0
    6.4981   -0.7504    0.0000 C   0  0  0  0  0  0  0  0  0  0  0  0
    0.0000   -1.5000    0.0000 N   0  0  0  0  0  0  0  0  0  0  0  0
   -0.0000   -3.0000    0.0000 C   0  0  0  0  0  0  0  0  0  0  0  0
   -1.3000   -0.7500    0.0000 C   0  0  0  0  0  0  0  0  0  0  0  0
   -2.6000   -1.5000    0.0000 C   0  0  0  0  0  0  0  0  0  0  0  0
   -2.6000   -3.0000    0.0000 O   0  0  0  0  0  0  0  0  0  0  0  0
   -3.8990   -3.7500    0.0000 C   0  0  0  0  0  0  0  0  0  0  0  0
   -3.9000   -0.7500    0.0000 C   0  0  0  0  0  0  0  0  0  0  0  0
   -3.9000    0.7500    0.0000 C   0  0  0  0  0  0  0  0  0  0  0  0
   -2.6000    1.5000    0.0000 C   0  0  0  0  0  0  0  0  0  0  0  0
   -1.3000    0.7500    0.0000 C   0  0  0  0  0  0  0  0  0  0  0  0
    0.0000    1.5000    0.0000 C   0  0  0  0  0  0  0  0  0  0  0  0
    0.0000    3.0000    0.0000 O   0  0  0  0  0  0  0  0  0  0  0  0
   -5.1989   -1.5002    0.0000 O   0  0  0  0  0  0  0  0  0  0  0  0
   -6.4981   -0.7504    0.0000 C   0  0  0  0  0  0  0  0  0  0  0  0
    2.6000    3.0000    0.0000 O   0  0  0  0  0  0  0  0  0  0  0  0
  1  2  2  0
  2  3  1  0
  3  4  2  0
  4  5  1  0
  5  6  2  0
  1  6  1  0
  6  7  1  0
  7  8  1  0
  4  9  1  0
  9 10  1  0
  9 11  1  0
 11 12  2  0
 12 13  1  0
 13 14  1  0
 12 15  1  0
 15 16  2  0
 16 17  1  0
 17 18  2  0
 11 18  1  0
 18 19  1  0
  3 19  1  0
 19 20  2  0
 15 21  1  0
 21 22  1  0
  2 23  1  0
M  END
>  <cdk:Title>  (250) 
Citpressine II

>  <1A2>  (250) 
N

>  <2A6>  (250) 
N

>  <2B6>  (250) 
N

>  <2C8>  (250) 
N

>  <2C9>  (250) 
N

>  <2C19>  (250) 
N

>  <2D6>  (250) 
N

>  <2E1>  (250) 
N

>  <3A4>  (250) 
N

>  <Citation>  (250) 
Nucleic Acids Res. 2018. Jan 4;46(D1):D608-17. PMID:29140435
Nucleic Acids Res. 2018 Jan 4;46(D1):D1074-D1082. PMID:29126136
Nucleic Acids Res., 45:D380-388 (2017).  PMID:27924025
Nucleic Acids Res. 2016 Jan 4;44(D1):D1202-13. PMID:26400175

>  <ROMol>  (250) 
<rdkit.Chem.rdchem.Mol object at 0x7c2905d02110>

>  <Drug_like>  (250) 
True

$$$$
(4R_6S)-1-(3-Furyl)-4_8-dimethyl-6-hydroxy-1-nonanone
     RDKit          2D

 18 18  0  0  0  0  0  0  0  0999 V2000
   11.9221    3.2518    0.0000 C   0  0  0  0  0  0  0  0  0  0  0  0
   12.4566    5.1583    0.0000 C   0  0  0  0  0  0  0  0  0  0  0  0
   13.3311    6.3770    0.0000 C   0  0  0  0  0  0  0  0  0  0  0  0
   10.9639    5.3063    0.0000 C   0  0  0  0  0  0  0  0  0  0  0  0
   10.3457    6.6730    0.0000 C   0  0  0  0  0  0  0  0  0  0  0  0
    7.8977    6.9157    0.0000 C   0  0  0  0  0  0  0  0  0  0  0  0
    7.2795    8.2824    0.0000 C   0  0  0  0  0  0  0  0  0  0  0  0
    7.1661    9.7781    0.0000 C   0  0  0  0  0  0  0  0  0  0  0  0
    4.3539    8.5724    0.0000 C   0  0  0  0  0  0  0  0  0  0  0  0
    3.7357    9.9391    0.0000 C   0  0  0  0  0  0  0  0  0  0  0  0
    2.2430   10.0871    0.0000 C   0  0  0  0  0  0  0  0  0  0  0  0
    1.6248   11.4538    0.0000 C   0  0  0  0  0  0  0  0  0  0  0  0
    0.1736   11.7444    0.0000 C   0  0  0  0  0  0  0  0  0  0  0  0
   -0.0182   13.2310    0.0000 C   0  0  0  0  0  0  0  0  0  0  0  0
    1.3606   13.8524    0.0000 O   0  0  0  0  0  0  0  0  0  0  0  0
    2.3743   12.7519    0.0000 C   0  0  0  0  0  0  0  0  0  0  0  0
    1.3685    8.8684    0.0000 O   0  0  0  0  0  0  0  0  0  0  0  0
   10.2322    8.1687    0.0000 O   0  0  0  0  0  0  0  0  0  0  0  0
  1  2  1  0
  2  3  1  0
  2  4  1  0
  4  5  1  0
  5  6  1  0
  6  7  1  0
  7  8  1  0
  7  9  1  0
  9 10  1  0
 10 11  1  0
 11 12  1  0
 12 13  1  0
 13 14  2  0
 14 15  1  0
 15 16  1  0
 12 16  2  0
 11 17  2  0
  5 18  1  0
M  END
>  <cdk:Title>  (251) 
(4R_6S)-1-(3-Furyl)-4_8-dimethyl-6-hydroxy-1-nonanone

>  <1A2>  (251) 
N

>  <2A6>  (251) 
N

>  <2B6>  (251) 
N

>  <2C8>  (251) 
N

>  <2C9>  (251) 
N

>  <2C19>  (251) 
N

>  <2D6>  (251) 
N

>  <2E1>  (251) 
N

>  <3A4>  (251) 
N

>  <Citation>  (251) 
Nucleic Acids Res. 2018. Jan 4;46(D1):D608-17. PMID:29140435
Nucleic Acids Res. 2018 Jan 4;46(D1):D1074-D1082. PMID:29126136
Nucleic Acids Res., 45:D380-388 (2017).  PMID:27924025
Nucleic Acids Res. 2016 Jan 4;44(D1):D1202-13. PMID:26400175

>  <ROMol>  (251) 
<rdkit.Chem.rdchem.Mol object at 0x7c2905d02180>

>  <Drug_like>  (251) 
True

$$$$
R(+)-4-En-valproic acid
     RDKit          2D

 10  9  0  0  0  0  0  0  0  0999 V2000
    4.5012    3.2617    0.0000 C   0  0  0  0  0  0  0  0  0  0  0  0
    4.5012    1.7617    0.0000 C   0  0  0  0  0  0  0  0  0  0  0  0
    3.2022    1.0117    0.0000 C   0  0  0  0  0  0  0  0  0  0  0  0
    3.2022   -0.4883    0.0000 C   0  0  0  0  0  0  0  0  0  0  0  0
    4.9169   -1.4783    0.0000 C   0  0  0  0  0  0  0  0  0  0  0  0
    4.9169   -2.9783    0.0000 C   0  0  0  0  0  0  0  0  0  0  0  0
    6.2160   -3.7283    0.0000 C   0  0  0  0  0  0  0  0  0  0  0  0
    1.2523   -0.1445    0.0000 C   0  0  0  0  0  0  0  0  0  0  0  0
    0.7393    1.2650    0.0000 O   0  0  0  0  0  0  0  0  0  0  0  0
    0.2881   -1.2936    0.0000 O   0  0  0  0  0  0  0  0  0  0  0  0
  1  2  2  0
  2  3  1  0
  3  4  1  0
  4  5  1  0
  5  6  1  0
  6  7  1  0
  4  8  1  0
  8  9  1  0
  8 10  2  0
M  END
>  <cdk:Title>  (252) 
R(+)-4-En-valproic acid

>  <1A2>  (252) 
N

>  <2A6>  (252) 
N

>  <2B6>  (252) 
N

>  <2C8>  (252) 
N

>  <2C9>  (252) 
N

>  <2C19>  (252) 
N

>  <2D6>  (252) 
N

>  <2E1>  (252) 
N

>  <3A4>  (252) 
N

>  <Citation>  (252) 
Nucleic Acids Res. 2018. Jan 4;46(D1):D608-17. PMID:29140435
Nucleic Acids Res. 2018 Jan 4;46(D1):D1074-D1082. PMID:29126136
Nucleic Acids Res., 45:D380-388 (2017).  PMID:27924025
Nucleic Acids Res. 2016 Jan 4;44(D1):D1202-13. PMID:26400175

>  <ROMol>  (252) 
<rdkit.Chem.rdchem.Mol object at 0x7c2905d022d0>

>  <Drug_like>  (252) 
True

$$$$
SCHEMBL13566289
     RDKit          2D

  9  9  0  0  0  0  0  0  0  0999 V2000
   -2.6045    0.6377    0.0000 C   0  0  0  0  0  0  0  0  0  0  0  0
   -1.7223   -0.5754    0.0000 C   0  0  0  0  0  0  0  0  0  0  0  0
    0.2468   -0.3676    0.0000 C   0  0  0  0  0  0  0  0  0  0  0  0
    0.2467   -1.8676    0.0000 C   0  0  0  0  0  0  0  0  0  0  0  0
   -0.0648    1.0922    0.0000 C   0  0  0  0  0  0  0  0  0  0  0  0
    1.2342    1.8422    0.0000 C   0  0  0  0  0  0  0  0  0  0  0  0
    2.3426    0.8424    0.0000 C   0  0  0  0  0  0  0  0  0  0  0  0
    3.8098    1.1540    0.0000 O   0  0  0  0  0  0  0  0  0  0  0  0
    1.7347   -0.5247    0.0000 O   0  0  0  0  0  0  0  0  0  0  0  0
  1  2  2  0
  3  2  1  0
  3  4  1  6
  3  5  1  0
  5  6  1  0
  6  7  1  0
  7  8  2  0
  7  9  1  0
  3  9  1  0
M  END
>  <cdk:Title>  (253) 
SCHEMBL13566289

>  <1A2>  (253) 
N

>  <2A6>  (253) 
N

>  <2B6>  (253) 
N

>  <2C8>  (253) 
N

>  <2C9>  (253) 
N

>  <2C19>  (253) 
N

>  <2D6>  (253) 
N

>  <2E1>  (253) 
N

>  <3A4>  (253) 
N

>  <Citation>  (253) 
Nucleic Acids Res. 2018. Jan 4;46(D1):D608-17. PMID:29140435
Nucleic Acids Res. 2018 Jan 4;46(D1):D1074-D1082. PMID:29126136
Nucleic Acids Res., 45:D380-388 (2017).  PMID:27924025
Nucleic Acids Res. 2016 Jan 4;44(D1):D1202-13. PMID:26400175

>  <ROMol>  (253) 
<rdkit.Chem.rdchem.Mol object at 0x7c2905d023b0>

>  <Drug_like>  (253) 
True

$$$$
2'_5'-Dihydroxychalcone
     RDKit          2D

 18 19  0  0  0  0  0  0  0  0999 V2000
    0.0000   -1.9300    0.0000 C   0  0  0  0  0  0  0  0  0  0  0  0
    1.3000   -1.1800    0.0000 C   0  0  0  0  0  0  0  0  0  0  0  0
    1.3000    0.3200    0.0000 C   0  0  0  0  0  0  0  0  0  0  0  0
    0.0000    1.0700    0.0000 C   0  0  0  0  0  0  0  0  0  0  0  0
   -1.3000    0.3200    0.0000 C   0  0  0  0  0  0  0  0  0  0  0  0
   -1.3000   -1.1800    0.0000 C   0  0  0  0  0  0  0  0  0  0  0  0
    0.0000    2.5700    0.0000 C   0  0  0  0  0  0  0  0  0  0  0  0
   -1.2990    3.3200    0.0000 C   0  0  0  0  0  0  0  0  0  0  0  0
   -1.2990    4.8200    0.0000 C   0  0  0  0  0  0  0  0  0  0  0  0
   -2.5981    5.5700    0.0000 C   0  0  0  0  0  0  0  0  0  0  0  0
   -3.8972    4.8202    0.0000 C   0  0  0  0  0  0  0  0  0  0  0  0
   -5.1966    5.5712    0.0000 C   0  0  0  0  0  0  0  0  0  0  0  0
   -5.1969    7.0721    0.0000 C   0  0  0  0  0  0  0  0  0  0  0  0
   -3.8977    7.8219    0.0000 C   0  0  0  0  0  0  0  0  0  0  0  0
   -2.5983    7.0708    0.0000 C   0  0  0  0  0  0  0  0  0  0  0  0
   -1.2992    7.8206    0.0000 O   0  0  0  0  0  0  0  0  0  0  0  0
   -6.4958    4.8215    0.0000 O   0  0  0  0  0  0  0  0  0  0  0  0
    0.0000    5.5700    0.0000 O   0  0  0  0  0  0  0  0  0  0  0  0
  1  2  2  0
  2  3  1  0
  3  4  2  0
  4  5  1  0
  5  6  2  0
  1  6  1  0
  4  7  1  0
  7  8  2  0
  8  9  1  0
  9 10  1  0
 10 11  2  0
 11 12  1  0
 12 13  2  0
 13 14  1  0
 14 15  2  0
 10 15  1  0
 15 16  1  0
 12 17  1  0
  9 18  2  0
M  END
>  <cdk:Title>  (254) 
2'_5'-Dihydroxychalcone

>  <1A2>  (254) 
N

>  <2A6>  (254) 
N

>  <2B6>  (254) 
N

>  <2C8>  (254) 
N

>  <2C9>  (254) 
N

>  <2C19>  (254) 
N

>  <2D6>  (254) 
N

>  <2E1>  (254) 
N

>  <3A4>  (254) 
N

>  <Citation>  (254) 
Nucleic Acids Res. 2018. Jan 4;46(D1):D608-17. PMID:29140435
Nucleic Acids Res. 2018 Jan 4;46(D1):D1074-D1082. PMID:29126136
Nucleic Acids Res., 45:D380-388 (2017).  PMID:27924025
Nucleic Acids Res. 2016 Jan 4;44(D1):D1202-13. PMID:26400175

>  <ROMol>  (254) 
<rdkit.Chem.rdchem.Mol object at 0x7c2905d02490>

>  <Drug_like>  (254) 
True

$$$$
Cadaverine
     RDKit          2D

  7  6  0  0  0  0  0  0  0  0999 V2000
    9.9247   -0.2700    0.0000 N   0  0  0  0  0  0  0  0  0  0  0  0
    8.6256    0.4800    0.0000 C   0  0  0  0  0  0  0  0  0  0  0  0
    7.3266   -0.2700    0.0000 C   0  0  0  0  0  0  0  0  0  0  0  0
    5.6118    0.7200    0.0000 C   0  0  0  0  0  0  0  0  0  0  0  0
    3.4814   -0.5100    0.0000 C   0  0  0  0  0  0  0  0  0  0  0  0
    2.1824    0.2400    0.0000 C   0  0  0  0  0  0  0  0  0  0  0  0
    0.8833   -0.5100    0.0000 N   0  0  0  0  0  0  0  0  0  0  0  0
  1  2  1  0
  2  3  1  0
  3  4  1  0
  4  5  1  0
  5  6  1  0
  6  7  1  0
M  END
>  <cdk:Title>  (255) 
Cadaverine

>  <1A2>  (255) 
N

>  <2A6>  (255) 
N

>  <2B6>  (255) 
N

>  <2C8>  (255) 
N

>  <2C9>  (255) 
N

>  <2C19>  (255) 
N

>  <2D6>  (255) 
N

>  <2E1>  (255) 
N

>  <3A4>  (255) 
N

>  <Citation>  (255) 
Nucleic Acids Res. 2018. Jan 4;46(D1):D608-17. PMID:29140435
Nucleic Acids Res. 2018 Jan 4;46(D1):D1074-D1082. PMID:29126136
Nucleic Acids Res., 45:D380-388 (2017).  PMID:27924025
Nucleic Acids Res. 2016 Jan 4;44(D1):D1202-13. PMID:26400175

>  <ROMol>  (255) 
<rdkit.Chem.rdchem.Mol object at 0x7c2905d02500>

>  <Drug_like>  (255) 
True

$$$$
(R)-2-Methylhexanoic acid
     RDKit          2D

  9  8  0  0  0  0  0  0  0  0999 V2000
    9.0933   -0.7500    0.0000 C   0  0  0  0  0  0  0  0  0  0  0  0
    7.7942   -0.0000    0.0000 C   0  0  0  0  0  0  0  0  0  0  0  0
    6.4952   -0.7500    0.0000 C   0  0  0  0  0  0  0  0  0  0  0  0
    4.3648    0.4800    0.0000 C   0  0  0  0  0  0  0  0  0  0  0  0
    3.0657   -0.2700    0.0000 C   0  0  0  0  0  0  0  0  0  0  0  0
    2.1015   -1.4191    0.0000 C   0  0  0  0  0  0  0  0  0  0  0  0
    1.7667    0.4800    0.0000 C   0  0  0  0  0  0  0  0  0  0  0  0
    1.7667    1.9800    0.0000 O   0  0  0  0  0  0  0  0  0  0  0  0
    0.4677   -0.2700    0.0000 O   0  0  0  0  0  0  0  0  0  0  0  0
  1  2  1  0
  2  3  1  0
  3  4  1  0
  4  5  1  0
  5  6  1  0
  5  7  1  0
  7  8  2  0
  7  9  1  0
M  END
>  <cdk:Title>  (256) 
(R)-2-Methylhexanoic acid

>  <1A2>  (256) 
N

>  <2A6>  (256) 
N

>  <2B6>  (256) 
N

>  <2C8>  (256) 
N

>  <2C9>  (256) 
N

>  <2C19>  (256) 
N

>  <2D6>  (256) 
N

>  <2E1>  (256) 
N

>  <3A4>  (256) 
N

>  <Citation>  (256) 
Nucleic Acids Res. 2018. Jan 4;46(D1):D608-17. PMID:29140435
Nucleic Acids Res. 2018 Jan 4;46(D1):D1074-D1082. PMID:29126136
Nucleic Acids Res., 45:D380-388 (2017).  PMID:27924025
Nucleic Acids Res. 2016 Jan 4;44(D1):D1202-13. PMID:26400175

>  <ROMol>  (256) 
<rdkit.Chem.rdchem.Mol object at 0x7c2905d02570>

>  <Drug_like>  (256) 
True

$$$$
Gluconolactone
     RDKit          2D

 12 12  0  0  0  0  0  0  0  0999 V2000
   -3.2999    2.6904    0.0000 O   0  0  0  0  0  0  0  0  0  0  0  0
   -1.8227    2.4296    0.0000 C   0  0  0  0  0  0  0  0  0  0  0  0
   -1.3100    1.0200    0.0000 C   0  0  0  0  0  0  0  0  0  0  0  0
   -0.0100    1.7700    0.0000 O   0  0  0  0  0  0  0  0  0  0  0  0
    1.3100    1.0200    0.0000 C   0  0  0  0  0  0  0  0  0  0  0  0
    2.6064    1.7745    0.0000 O   0  0  0  0  0  0  0  0  0  0  0  0
    1.3100   -0.4700    0.0000 C   0  0  0  0  0  0  0  0  0  0  0  0
    1.8219   -1.8799    0.0000 O   0  0  0  0  0  0  0  0  0  0  0  0
   -0.0100   -1.2300    0.0000 C   0  0  0  0  0  0  0  0  0  0  0  0
   -0.9788   -2.3752    0.0000 O   0  0  0  0  0  0  0  0  0  0  0  0
   -1.3100   -0.4700    0.0000 C   0  0  0  0  0  0  0  0  0  0  0  0
   -2.7867   -0.2069    0.0000 O   0  0  0  0  0  0  0  0  0  0  0  0
  1  2  1  0
  2  3  1  0
  3  4  1  0
  4  5  1  0
  5  6  2  0
  5  7  1  0
  7  8  1  0
  7  9  1  0
  9 10  1  0
  9 11  1  0
  3 11  1  0
 11 12  1  0
M  END
>  <cdk:Title>  (257) 
Gluconolactone

>  <1A2>  (257) 
N

>  <2A6>  (257) 
N

>  <2B6>  (257) 
N

>  <2C8>  (257) 
N

>  <2C9>  (257) 
N

>  <2C19>  (257) 
N

>  <2D6>  (257) 
N

>  <2E1>  (257) 
N

>  <3A4>  (257) 
N

>  <Citation>  (257) 
Nucleic Acids Res. 2018. Jan 4;46(D1):D608-17. PMID:29140435
Nucleic Acids Res. 2018 Jan 4;46(D1):D1074-D1082. PMID:29126136
Nucleic Acids Res., 45:D380-388 (2017).  PMID:27924025
Nucleic Acids Res. 2016 Jan 4;44(D1):D1202-13. PMID:26400175

>  <ROMol>  (257) 
<rdkit.Chem.rdchem.Mol object at 0x7c2905d02650>

>  <Drug_like>  (257) 
True

$$$$
L-Erythro-tetrahydrobiopterin
     RDKit          2D

 17 18  0  0  0  0  0  0  0  0999 V2000
   -1.9808    2.6956    0.0000 N   0  0  0  0  0  0  0  0  0  0  0  0
   -3.2708    1.9456    0.0000 C   0  0  0  0  0  0  0  0  0  0  0  0
   -3.2708    0.4756    0.0000 N   0  0  0  0  0  0  0  0  0  0  0  0
   -1.9808   -0.2744    0.0000 C   0  0  0  0  0  0  0  0  0  0  0  0
   -0.6808    0.4756    0.0000 C   0  0  0  0  0  0  0  0  0  0  0  0
    0.5492   -0.2744    0.0000 N   0  0  0  0  0  0  0  0  0  0  0  0
    1.8492    0.4756    0.0000 C   0  0  0  0  0  0  0  0  0  0  0  0
    1.8492    1.9456    0.0000 C   0  0  0  0  0  0  0  0  0  0  0  0
    0.5492    2.6956    0.0000 N   0  0  0  0  0  0  0  0  0  0  0  0
   -0.6808    1.9456    0.0000 C   0  0  0  0  0  0  0  0  0  0  0  0
    2.6900   -1.8362    0.0000 C   0  0  0  0  0  0  0  0  0  0  0  0
    4.6399   -2.1804    0.0000 C   0  0  0  0  0  0  0  0  0  0  0  0
    5.1526   -3.5901    0.0000 C   0  0  0  0  0  0  0  0  0  0  0  0
    6.1172   -1.9203    0.0000 O   0  0  0  0  0  0  0  0  0  0  0  0
    1.2128   -2.0964    0.0000 O   0  0  0  0  0  0  0  0  0  0  0  0
   -1.9833   -1.7744    0.0000 O   0  0  0  0  0  0  0  0  0  0  0  0
   -4.5710    2.6937    0.0000 N   0  0  0  0  0  0  0  0  0  0  0  0
  1  2  1  0
  2  3  2  0
  3  4  1  0
  4  5  1  0
  5  6  1  0
  6  7  1  0
  7  8  1  0
  8  9  1  0
  9 10  1  0
  1 10  1  0
  5 10  2  0
  7 11  1  0
 11 12  1  0
 12 13  1  0
 12 14  1  0
 11 15  1  0
  4 16  2  0
  2 17  1  0
M  END
>  <cdk:Title>  (258) 
L-Erythro-tetrahydrobiopterin

>  <1A2>  (258) 
N

>  <2A6>  (258) 
N

>  <2B6>  (258) 
N

>  <2C8>  (258) 
N

>  <2C9>  (258) 
N

>  <2C19>  (258) 
N

>  <2D6>  (258) 
N

>  <2E1>  (258) 
N

>  <3A4>  (258) 
N

>  <Citation>  (258) 
Nucleic Acids Res. 2018. Jan 4;46(D1):D608-17. PMID:29140435
Nucleic Acids Res. 2018 Jan 4;46(D1):D1074-D1082. PMID:29126136
Nucleic Acids Res., 45:D380-388 (2017).  PMID:27924025
Nucleic Acids Res. 2016 Jan 4;44(D1):D1202-13. PMID:26400175

>  <ROMol>  (258) 
<rdkit.Chem.rdchem.Mol object at 0x7c2905d026c0>

>  <Drug_like>  (258) 
True

$$$$
3-Oxohexadecanoic acid
     RDKit          2D

 19 18  0  0  0  0  0  0  0  0999 V2000
   12.0791   -1.6647    0.0000 C   0  0  0  0  0  0  0  0  0  0  0  0
   14.0591   -1.6647    0.0000 C   0  0  0  0  0  0  0  0  0  0  0  0
   15.0491   -3.3795    0.0000 C   0  0  0  0  0  0  0  0  0  0  0  0
   17.0291   -3.3795    0.0000 C   0  0  0  0  0  0  0  0  0  0  0  0
   18.0191   -5.0942    0.0000 C   0  0  0  0  0  0  0  0  0  0  0  0
   19.9991   -5.0942    0.0000 C   0  0  0  0  0  0  0  0  0  0  0  0
   20.7491   -6.3932    0.0000 C   0  0  0  0  0  0  0  0  0  0  0  0
   22.2491   -6.3932    0.0000 C   0  0  0  0  0  0  0  0  0  0  0  0
   11.0891    0.0500    0.0000 C   0  0  0  0  0  0  0  0  0  0  0  0
    8.6291    0.0500    0.0000 C   0  0  0  0  0  0  0  0  0  0  0  0
    7.6391    1.7647    0.0000 C   0  0  0  0  0  0  0  0  0  0  0  0
    5.6591    1.7647    0.0000 C   0  0  0  0  0  0  0  0  0  0  0  0
    4.9091    3.0638    0.0000 C   0  0  0  0  0  0  0  0  0  0  0  0
    2.9291    3.0638    0.0000 C   0  0  0  0  0  0  0  0  0  0  0  0
    2.1791    1.7647    0.0000 O   0  0  0  0  0  0  0  0  0  0  0  0
    2.1791    4.3628    0.0000 C   0  0  0  0  0  0  0  0  0  0  0  0
    0.6791    4.3628    0.0000 C   0  0  0  0  0  0  0  0  0  0  0  0
   -0.0709    3.0638    0.0000 O   0  0  0  0  0  0  0  0  0  0  0  0
   -0.0709    5.6618    0.0000 O   0  0  0  0  0  0  0  0  0  0  0  0
  1  2  1  0
  2  3  1  0
  3  4  1  0
  4  5  1  0
  5  6  1  0
  6  7  1  0
  7  8  1  0
  1  9  1  0
  9 10  1  0
 10 11  1  0
 11 12  1  0
 12 13  1  0
 13 14  1  0
 14 15  2  0
 14 16  1  0
 16 17  1  0
 17 18  2  0
 17 19  1  0
M  END
>  <cdk:Title>  (259) 
3-Oxohexadecanoic acid

>  <1A2>  (259) 
N

>  <2A6>  (259) 
N

>  <2B6>  (259) 
N

>  <2C8>  (259) 
N

>  <2C9>  (259) 
N

>  <2C19>  (259) 
N

>  <2D6>  (259) 
N

>  <2E1>  (259) 
N

>  <3A4>  (259) 
N

>  <Citation>  (259) 
Nucleic Acids Res. 2018. Jan 4;46(D1):D608-17. PMID:29140435
Nucleic Acids Res. 2018 Jan 4;46(D1):D1074-D1082. PMID:29126136
Nucleic Acids Res., 45:D380-388 (2017).  PMID:27924025
Nucleic Acids Res. 2016 Jan 4;44(D1):D1202-13. PMID:26400175

>  <ROMol>  (259) 
<rdkit.Chem.rdchem.Mol object at 0x7c2905d02730>

>  <Drug_like>  (259) 
True

$$$$
4-(Hydroxymethyl)benzenediazonium(1+)
     RDKit          2D

 10 10  0  0  0  0  0  0  0  0999 V2000
   -1.3000   -0.7500    0.0000 C   0  0  0  0  0  0  0  0  0  0  0  0
    0.0000   -1.5000    0.0000 C   0  0  0  0  0  0  0  0  0  0  0  0
    1.3000   -0.7500    0.0000 C   0  0  0  0  0  0  0  0  0  0  0  0
    1.3000    0.7500    0.0000 C   0  0  0  0  0  0  0  0  0  0  0  0
    0.0000    1.5000    0.0000 C   0  0  0  0  0  0  0  0  0  0  0  0
   -1.3000    0.7500    0.0000 C   0  0  0  0  0  0  0  0  0  0  0  0
   -2.5989    1.5002    0.0000 C   0  0  0  0  0  0  0  0  0  0  0  0
   -3.8981    0.7504    0.0000 O   0  0  0  0  0  0  0  0  0  0  0  0
    2.5989   -1.5002    0.0000 N   0  0  0  0  0  0  0  0  0  0  0  0
    3.8978   -2.2504    0.0000 N   0  0  0  0  0  0  0  0  0  0  0  0
  1  2  2  0
  2  3  1  0
  3  4  2  0
  4  5  1  0
  5  6  2  0
  1  6  1  0
  6  7  1  0
  7  8  1  0
  3  9  1  0
  9 10  3  0
M  CHG  1   9   1
M  END
>  <cdk:Title>  (260) 
4-(Hydroxymethyl)benzenediazonium(1+)

>  <1A2>  (260) 
N

>  <2A6>  (260) 
N

>  <2B6>  (260) 
N

>  <2C8>  (260) 
N

>  <2C9>  (260) 
N

>  <2C19>  (260) 
N

>  <2D6>  (260) 
N

>  <2E1>  (260) 
N

>  <3A4>  (260) 
N

>  <Citation>  (260) 
Nucleic Acids Res. 2018. Jan 4;46(D1):D608-17. PMID:29140435
Nucleic Acids Res. 2018 Jan 4;46(D1):D1074-D1082. PMID:29126136
Nucleic Acids Res., 45:D380-388 (2017).  PMID:27924025
Nucleic Acids Res. 2016 Jan 4;44(D1):D1202-13. PMID:26400175

>  <ROMol>  (260) 
<rdkit.Chem.rdchem.Mol object at 0x7c2905d027a0>

>  <Drug_like>  (260) 
True

$$$$
(5Z_8S_9S_11Z_14Z)-8_9-Dihydroxyicosatrienoic acid
     RDKit          2D

 24 23  0  0  0  0  0  0  0  0999 V2000
    3.3226   -1.8102    0.0000 O   0  0  0  0  0  0  0  0  0  0  0  0
    3.0621   -3.2874    0.0000 C   0  0  0  0  0  0  0  0  0  0  0  0
    6.0021   -3.2874    0.0000 C   0  0  0  0  0  0  0  0  0  0  0  0
    5.7416   -4.7646    0.0000 O   0  0  0  0  0  0  0  0  0  0  0  0
    7.4721   -0.7413    0.0000 C   0  0  0  0  0  0  0  0  0  0  0  0
    9.9321   -0.7413    0.0000 C   0  0  0  0  0  0  0  0  0  0  0  0
   10.6821   -2.0403    0.0000 C   0  0  0  0  0  0  0  0  0  0  0  0
    9.9321   -3.3393    0.0000 C   0  0  0  0  0  0  0  0  0  0  0  0
   10.6821   -4.6384    0.0000 C   0  0  0  0  0  0  0  0  0  0  0  0
   12.1821   -4.6384    0.0000 C   0  0  0  0  0  0  0  0  0  0  0  0
   12.9321   -3.3393    0.0000 C   0  0  0  0  0  0  0  0  0  0  0  0
   14.4321   -3.3393    0.0000 C   0  0  0  0  0  0  0  0  0  0  0  0
   15.4221   -5.0541    0.0000 C   0  0  0  0  0  0  0  0  0  0  0  0
   16.9221   -5.0541    0.0000 C   0  0  0  0  0  0  0  0  0  0  0  0
   17.6721   -6.3531    0.0000 C   0  0  0  0  0  0  0  0  0  0  0  0
    1.5921   -5.8335    0.0000 C   0  0  0  0  0  0  0  0  0  0  0  0
   -1.3479   -5.8335    0.0000 C   0  0  0  0  0  0  0  0  0  0  0  0
   -2.5779   -3.7031    0.0000 C   0  0  0  0  0  0  0  0  0  0  0  0
   -1.8279   -2.4040    0.0000 C   0  0  0  0  0  0  0  0  0  0  0  0
   -2.5779   -1.1050    0.0000 C   0  0  0  0  0  0  0  0  0  0  0  0
   -4.0779   -1.1050    0.0000 C   0  0  0  0  0  0  0  0  0  0  0  0
   -4.8279    0.1940    0.0000 C   0  0  0  0  0  0  0  0  0  0  0  0
   -6.3279    0.1940    0.0000 O   0  0  0  0  0  0  0  0  0  0  0  0
   -4.0779    1.4931    0.0000 O   0  0  0  0  0  0  0  0  0  0  0  0
  1  2  1  0
  2  3  1  0
  3  4  1  0
  3  5  1  0
  5  6  1  0
  6  7  2  0
  7  8  1  0
  8  9  1  0
  9 10  2  0
 10 11  1  0
 11 12  1  0
 12 13  1  0
 13 14  1  0
 14 15  1  0
  2 16  1  0
 16 17  1  0
 17 18  2  0
 18 19  1  0
 19 20  1  0
 20 21  1  0
 21 22  1  0
 22 23  1  0
 22 24  2  0
M  END
>  <cdk:Title>  (261) 
(5Z_8S_9S_11Z_14Z)-8_9-Dihydroxyicosatrienoic acid

>  <1A2>  (261) 
N

>  <2A6>  (261) 
N

>  <2B6>  (261) 
N

>  <2C8>  (261) 
N

>  <2C9>  (261) 
N

>  <2C19>  (261) 
N

>  <2D6>  (261) 
N

>  <2E1>  (261) 
N

>  <3A4>  (261) 
N

>  <Citation>  (261) 
Nucleic Acids Res. 2018. Jan 4;46(D1):D608-17. PMID:29140435
Nucleic Acids Res. 2018 Jan 4;46(D1):D1074-D1082. PMID:29126136
Nucleic Acids Res., 45:D380-388 (2017).  PMID:27924025
Nucleic Acids Res. 2016 Jan 4;44(D1):D1202-13. PMID:26400175

>  <ROMol>  (261) 
<rdkit.Chem.rdchem.Mol object at 0x7c2905d02810>

>  <Drug_like>  (261) 
True

$$$$
(R)-(+)-1-Phenyl-1-propanol
     RDKit          2D

 10 10  0  0  0  0  0  0  0  0999 V2000
   -3.6559    2.0617    0.0000 C   0  0  0  0  0  0  0  0  0  0  0  0
   -2.3568    1.3117    0.0000 C   0  0  0  0  0  0  0  0  0  0  0  0
   -1.0578    2.0617    0.0000 C   0  0  0  0  0  0  0  0  0  0  0  0
    0.2413    1.3117    0.0000 C   0  0  0  0  0  0  0  0  0  0  0  0
    1.5408    2.0625    0.0000 C   0  0  0  0  0  0  0  0  0  0  0  0
    2.8398    1.3125    0.0000 C   0  0  0  0  0  0  0  0  0  0  0  0
    2.8393   -0.1883    0.0000 C   0  0  0  0  0  0  0  0  0  0  0  0
    1.5398   -0.9392    0.0000 C   0  0  0  0  0  0  0  0  0  0  0  0
    0.2408   -0.1892    0.0000 C   0  0  0  0  0  0  0  0  0  0  0  0
   -0.0936    3.2107    0.0000 O   0  0  0  0  0  0  0  0  0  0  0  0
  1  2  1  0
  2  3  1  0
  3  4  1  0
  4  5  2  0
  5  6  1  0
  6  7  2  0
  7  8  1  0
  8  9  2  0
  4  9  1  0
  3 10  1  0
M  END
>  <cdk:Title>  (262) 
(R)-(+)-1-Phenyl-1-propanol

>  <1A2>  (262) 
N

>  <2A6>  (262) 
N

>  <2B6>  (262) 
N

>  <2C8>  (262) 
N

>  <2C9>  (262) 
N

>  <2C19>  (262) 
N

>  <2D6>  (262) 
N

>  <2E1>  (262) 
N

>  <3A4>  (262) 
N

>  <Citation>  (262) 
Nucleic Acids Res. 2018. Jan 4;46(D1):D608-17. PMID:29140435
Nucleic Acids Res. 2018 Jan 4;46(D1):D1074-D1082. PMID:29126136
Nucleic Acids Res., 45:D380-388 (2017).  PMID:27924025
Nucleic Acids Res. 2016 Jan 4;44(D1):D1202-13. PMID:26400175

>  <ROMol>  (262) 
<rdkit.Chem.rdchem.Mol object at 0x7c2905d029d0>

>  <Drug_like>  (262) 
True

$$$$
CJ-25886
     RDKit          2D

 16 15  0  0  0  0  0  0  0  0999 V2000
    9.0651   -0.7584    0.0000 C   0  0  0  0  0  0  0  0  0  0  0  0
    8.2237    1.5533    0.0000 C   0  0  0  0  0  0  0  0  0  0  0  0
    8.2237    3.0533    0.0000 C   0  0  0  0  0  0  0  0  0  0  0  0
    5.6776    0.0833    0.0000 C   0  0  0  0  0  0  0  0  0  0  0  0
    4.3786    0.8333    0.0000 C   0  0  0  0  0  0  0  0  0  0  0  0
    3.0795    0.0833    0.0000 N   0  0  0  0  0  0  0  0  0  0  0  0
    3.0795   -1.8967    0.0000 C   0  0  0  0  0  0  0  0  0  0  0  0
    4.3786   -2.6467    0.0000 O   0  0  0  0  0  0  0  0  0  0  0  0
    1.7805   -2.6467    0.0000 C   0  0  0  0  0  0  0  0  0  0  0  0
    1.2675   -1.2372    0.0000 N   0  0  0  0  0  0  0  0  0  0  0  0
    1.7805   -4.6267    0.0000 C   0  0  0  0  0  0  0  0  0  0  0  0
    0.4814   -5.3767    0.0000 C   0  0  0  0  0  0  0  0  0  0  0  0
    2.2935   -6.0362    0.0000 C   0  0  0  0  0  0  0  0  0  0  0  0
    3.4144    1.9824    0.0000 C   0  0  0  0  0  0  0  0  0  0  0  0
    3.9274    3.3919    0.0000 O   0  0  0  0  0  0  0  0  0  0  0  0
    1.9372    1.7219    0.0000 O   0  0  0  0  0  0  0  0  0  0  0  0
  1  2  1  0
  2  3  1  0
  2  4  1  0
  4  5  1  0
  5  6  1  0
  6  7  1  0
  7  8  2  0
  7  9  1  0
  9 10  1  0
  9 11  1  0
 11 12  1  0
 11 13  1  0
  5 14  1  0
 14 15  1  0
 14 16  2  0
M  END
>  <cdk:Title>  (263) 
CJ-25886

>  <1A2>  (263) 
N

>  <2A6>  (263) 
N

>  <2B6>  (263) 
N

>  <2C8>  (263) 
N

>  <2C9>  (263) 
N

>  <2C19>  (263) 
N

>  <2D6>  (263) 
N

>  <2E1>  (263) 
N

>  <3A4>  (263) 
N

>  <Citation>  (263) 
Nucleic Acids Res. 2018. Jan 4;46(D1):D608-17. PMID:29140435
Nucleic Acids Res. 2018 Jan 4;46(D1):D1074-D1082. PMID:29126136
Nucleic Acids Res., 45:D380-388 (2017).  PMID:27924025
Nucleic Acids Res. 2016 Jan 4;44(D1):D1202-13. PMID:26400175

>  <ROMol>  (263) 
<rdkit.Chem.rdchem.Mol object at 0x7c2905d02a40>

>  <Drug_like>  (263) 
True

$$$$
N-Isobutyl-2_4_8_10_12-tetradecapentaenamide
     RDKit          2D

 20 19  0  0  0  0  0  0  0  0999 V2000
   16.6577  -14.1206    0.0000 C   0  0  0  0  0  0  0  0  0  0  0  0
   15.9077  -12.8215    0.0000 C   0  0  0  0  0  0  0  0  0  0  0  0
   14.4077  -12.8215    0.0000 C   0  0  0  0  0  0  0  0  0  0  0  0
   13.6577  -11.5225    0.0000 C   0  0  0  0  0  0  0  0  0  0  0  0
   12.1577  -11.5225    0.0000 C   0  0  0  0  0  0  0  0  0  0  0  0
   11.4077  -10.2234    0.0000 C   0  0  0  0  0  0  0  0  0  0  0  0
    9.9077  -10.2234    0.0000 C   0  0  0  0  0  0  0  0  0  0  0  0
    9.1577   -8.9244    0.0000 C   0  0  0  0  0  0  0  0  0  0  0  0
    7.6577   -8.9244    0.0000 C   0  0  0  0  0  0  0  0  0  0  0  0
    6.9077   -7.6254    0.0000 C   0  0  0  0  0  0  0  0  0  0  0  0
    5.4077   -7.6254    0.0000 C   0  0  0  0  0  0  0  0  0  0  0  0
    4.6577   -6.3263    0.0000 C   0  0  0  0  0  0  0  0  0  0  0  0
    3.1577   -6.3263    0.0000 C   0  0  0  0  0  0  0  0  0  0  0  0
    2.4077   -5.0273    0.0000 C   0  0  0  0  0  0  0  0  0  0  0  0
    0.9077   -5.0273    0.0000 N   0  0  0  0  0  0  0  0  0  0  0  0
    0.1577   -3.7283    0.0000 C   0  0  0  0  0  0  0  0  0  0  0  0
   -2.7823   -3.7283    0.0000 C   0  0  0  0  0  0  0  0  0  0  0  0
   -3.5323   -5.0273    0.0000 C   0  0  0  0  0  0  0  0  0  0  0  0
   -2.3551   -1.3056    0.0000 C   0  0  0  0  0  0  0  0  0  0  0  0
    3.1577   -3.7283    0.0000 O   0  0  0  0  0  0  0  0  0  0  0  0
  1  2  1  0
  2  3  2  0
  3  4  1  0
  4  5  2  0
  5  6  1  0
  6  7  2  0
  7  8  1  0
  8  9  1  0
  9 10  1  0
 10 11  2  0
 11 12  1  0
 12 13  2  0
 13 14  1  0
 14 15  1  0
 15 16  1  0
 16 17  1  0
 17 18  1  0
 17 19  1  0
 14 20  2  0
M  END
>  <cdk:Title>  (264) 
N-Isobutyl-2_4_8_10_12-tetradecapentaenamide

>  <1A2>  (264) 
N

>  <2A6>  (264) 
N

>  <2B6>  (264) 
N

>  <2C8>  (264) 
N

>  <2C9>  (264) 
N

>  <2C19>  (264) 
N

>  <2D6>  (264) 
N

>  <2E1>  (264) 
N

>  <3A4>  (264) 
N

>  <Citation>  (264) 
Nucleic Acids Res. 2018. Jan 4;46(D1):D608-17. PMID:29140435
Nucleic Acids Res. 2018 Jan 4;46(D1):D1074-D1082. PMID:29126136
Nucleic Acids Res., 45:D380-388 (2017).  PMID:27924025
Nucleic Acids Res. 2016 Jan 4;44(D1):D1202-13. PMID:26400175

>  <ROMol>  (264) 
<rdkit.Chem.rdchem.Mol object at 0x7c2905d02ab0>

>  <Drug_like>  (264) 
True

$$$$
L-Prolylglycine
     RDKit          2D

 12 12  0  0  0  0  0  0  0  0999 V2000
    1.2634    3.0676    0.0000 C   0  0  0  0  0  0  0  0  0  0  0  0
    2.2673    4.1821    0.0000 O   0  0  0  0  0  0  0  0  0  0  0  0
    1.7267    1.6409    0.0000 C   0  0  0  0  0  0  0  0  0  0  0  0
    3.0938    2.2488    0.0000 N   0  0  0  0  0  0  0  0  0  0  0  0
    4.1023    1.1354    0.0000 C   0  0  0  0  0  0  0  0  0  0  0  0
    3.3523   -0.1636    0.0000 C   0  0  0  0  0  0  0  0  0  0  0  0
    1.8838    0.1530    0.0000 C   0  0  0  0  0  0  0  0  0  0  0  0
   -0.2037    3.3797    0.0000 N   0  0  0  0  0  0  0  0  0  0  0  0
   -0.6670    4.8063    0.0000 C   0  0  0  0  0  0  0  0  0  0  0  0
   -2.1342    5.1184    0.0000 C   0  0  0  0  0  0  0  0  0  0  0  0
   -3.1381    4.0039    0.0000 O   0  0  0  0  0  0  0  0  0  0  0  0
   -2.5975    6.5451    0.0000 O   0  0  0  0  0  0  0  0  0  0  0  0
  1  2  2  0
  1  3  1  0
  3  4  1  0
  4  5  1  0
  5  6  1  0
  6  7  1  0
  3  7  1  0
  1  8  1  0
  8  9  1  0
  9 10  1  0
 10 11  2  0
 10 12  1  0
M  END
>  <cdk:Title>  (265) 
L-Prolylglycine

>  <1A2>  (265) 
N

>  <2A6>  (265) 
N

>  <2B6>  (265) 
N

>  <2C8>  (265) 
N

>  <2C9>  (265) 
N

>  <2C19>  (265) 
N

>  <2D6>  (265) 
N

>  <2E1>  (265) 
N

>  <3A4>  (265) 
N

>  <Citation>  (265) 
Nucleic Acids Res. 2018. Jan 4;46(D1):D608-17. PMID:29140435
Nucleic Acids Res. 2018 Jan 4;46(D1):D1074-D1082. PMID:29126136
Nucleic Acids Res., 45:D380-388 (2017).  PMID:27924025
Nucleic Acids Res. 2016 Jan 4;44(D1):D1202-13. PMID:26400175

>  <ROMol>  (265) 
<rdkit.Chem.rdchem.Mol object at 0x7c2905d02b20>

>  <Drug_like>  (265) 
True

$$$$
Nitecapone
     RDKit          2D

 19 19  0  0  0  0  0  0  0  0999 V2000
    2.8574    7.0196    0.0000 O   0  0  0  0  0  0  0  0  0  0  0  0
    2.8574    5.5196    0.0000 C   0  0  0  0  0  0  0  0  0  0  0  0
    1.5574    4.7696    0.0000 C   0  0  0  0  0  0  0  0  0  0  0  0
    1.5574    3.2696    0.0000 C   0  0  0  0  0  0  0  0  0  0  0  0
    0.2585    2.5194    0.0000 C   0  0  0  0  0  0  0  0  0  0  0  0
    0.2589    0.0594    0.0000 C   0  0  0  0  0  0  0  0  0  0  0  0
   -1.0400   -0.6908    0.0000 C   0  0  0  0  0  0  0  0  0  0  0  0
   -1.0398   -2.1908    0.0000 O   0  0  0  0  0  0  0  0  0  0  0  0
   -2.3392    0.0590    0.0000 C   0  0  0  0  0  0  0  0  0  0  0  0
    1.5581   -0.6904    0.0000 C   0  0  0  0  0  0  0  0  0  0  0  0
    2.8570    0.0598    0.0000 O   0  0  0  0  0  0  0  0  0  0  0  0
    1.5583   -2.1904    0.0000 C   0  0  0  0  0  0  0  0  0  0  0  0
    2.8574    2.5196    0.0000 C   0  0  0  0  0  0  0  0  0  0  0  0
    4.1574    3.2696    0.0000 C   0  0  0  0  0  0  0  0  0  0  0  0
    4.1574    4.7696    0.0000 C   0  0  0  0  0  0  0  0  0  0  0  0
    5.4564    5.5198    0.0000 O   0  0  0  0  0  0  0  0  0  0  0  0
    5.4564    2.5194    0.0000 N   0  0  0  0  0  0  0  0  0  0  0  0
    6.7555    3.2692    0.0000 O   0  0  0  0  0  0  0  0  0  0  0  0
    5.4561    1.0194    0.0000 O   0  0  0  0  0  0  0  0  0  0  0  0
  1  2  1  0
  2  3  2  0
  3  4  1  0
  4  5  1  0
  5  6  2  0
  6  7  1  0
  7  8  2  0
  7  9  1  0
  6 10  1  0
 10 11  2  0
 10 12  1  0
  4 13  2  0
 13 14  1  0
 14 15  2  0
  2 15  1  0
 15 16  1  0
 14 17  1  0
 17 18  1  0
 17 19  2  0
M  CHG  2  17   1  18  -1
M  END
>  <cdk:Title>  (266) 
Nitecapone

>  <1A2>  (266) 
N

>  <2A6>  (266) 
N

>  <2B6>  (266) 
N

>  <2C8>  (266) 
N

>  <2C9>  (266) 
N

>  <2C19>  (266) 
N

>  <2D6>  (266) 
N

>  <2E1>  (266) 
N

>  <3A4>  (266) 
N

>  <Citation>  (266) 
Nucleic Acids Res. 2018. Jan 4;46(D1):D608-17. PMID:29140435
Nucleic Acids Res. 2018 Jan 4;46(D1):D1074-D1082. PMID:29126136
Nucleic Acids Res., 45:D380-388 (2017).  PMID:27924025
Nucleic Acids Res. 2016 Jan 4;44(D1):D1202-13. PMID:26400175

>  <ROMol>  (266) 
<rdkit.Chem.rdchem.Mol object at 0x7c2905d02b90>

>  <Drug_like>  (266) 
True

$$$$
128342-71-2
     RDKit          2D

 11 10  0  0  0  0  0  0  0  0999 V2000
    1.3664   -4.1593    0.0000 C   0  0  0  0  0  0  0  0  0  0  0  0
    2.8664   -4.1593    0.0000 C   0  0  0  0  0  0  0  0  0  0  0  0
    3.6164   -2.8603    0.0000 C   0  0  0  0  0  0  0  0  0  0  0  0
    5.5964   -2.8603    0.0000 C   0  0  0  0  0  0  0  0  0  0  0  0
    6.5864   -1.1455    0.0000 C   0  0  0  0  0  0  0  0  0  0  0  0
    6.8469    0.3317    0.0000 C   0  0  0  0  0  0  0  0  0  0  0  0
    9.5264   -1.1455    0.0000 C   0  0  0  0  0  0  0  0  0  0  0  0
   10.2764    0.1535    0.0000 C   0  0  0  0  0  0  0  0  0  0  0  0
   11.7764    0.1535    0.0000 C   0  0  0  0  0  0  0  0  0  0  0  0
   12.5264   -1.1455    0.0000 O   0  0  0  0  0  0  0  0  0  0  0  0
   12.5264    1.4525    0.0000 O   0  0  0  0  0  0  0  0  0  0  0  0
  1  2  1  0
  2  3  1  0
  3  4  1  0
  4  5  1  0
  5  6  1  0
  5  7  1  0
  7  8  1  0
  8  9  1  0
  9 10  2  0
  9 11  1  0
M  END
>  <cdk:Title>  (267) 
128342-71-2

>  <1A2>  (267) 
N

>  <2A6>  (267) 
N

>  <2B6>  (267) 
N

>  <2C8>  (267) 
N

>  <2C9>  (267) 
N

>  <2C19>  (267) 
N

>  <2D6>  (267) 
N

>  <2E1>  (267) 
N

>  <3A4>  (267) 
N

>  <Citation>  (267) 
Nucleic Acids Res. 2018. Jan 4;46(D1):D608-17. PMID:29140435
Nucleic Acids Res. 2018 Jan 4;46(D1):D1074-D1082. PMID:29126136
Nucleic Acids Res., 45:D380-388 (2017).  PMID:27924025
Nucleic Acids Res. 2016 Jan 4;44(D1):D1202-13. PMID:26400175

>  <ROMol>  (267) 
<rdkit.Chem.rdchem.Mol object at 0x7c2905d02c70>

>  <Drug_like>  (267) 
True

$$$$
(R)-2-(5-Oxotetrahydrofuran-2-yl)acetic acid
     RDKit          2D

 10 10  0  0  0  0  0  0  0  0999 V2000
    2.1876    1.1773    0.0000 C   0  0  0  0  0  0  0  0  0  0  0  0
    3.6892    1.3380    0.0000 C   0  0  0  0  0  0  0  0  0  0  0  0
    4.2921   -0.0377    0.0000 C   0  0  0  0  0  0  0  0  0  0  0  0
    3.1837   -1.0375    0.0000 O   0  0  0  0  0  0  0  0  0  0  0  0
    1.8847   -0.2875    0.0000 C   0  0  0  0  0  0  0  0  0  0  0  0
   -0.9147    0.6108    0.0000 C   0  0  0  0  0  0  0  0  0  0  0  0
   -2.0258   -0.3970    0.0000 C   0  0  0  0  0  0  0  0  0  0  0  0
   -1.7086   -1.8630    0.0000 O   0  0  0  0  0  0  0  0  0  0  0  0
   -3.4541    0.0614    0.0000 O   0  0  0  0  0  0  0  0  0  0  0  0
    5.7585   -0.3532    0.0000 O   0  0  0  0  0  0  0  0  0  0  0  0
  1  2  1  0
  2  3  1  0
  3  4  1  0
  4  5  1  0
  1  5  1  0
  5  6  1  0
  6  7  1  0
  7  8  2  0
  7  9  1  0
  3 10  2  0
M  END
>  <cdk:Title>  (268) 
(R)-2-(5-Oxotetrahydrofuran-2-yl)acetic acid

>  <1A2>  (268) 
N

>  <2A6>  (268) 
N

>  <2B6>  (268) 
N

>  <2C8>  (268) 
N

>  <2C9>  (268) 
N

>  <2C19>  (268) 
N

>  <2D6>  (268) 
N

>  <2E1>  (268) 
N

>  <3A4>  (268) 
N

>  <Citation>  (268) 
Nucleic Acids Res. 2018. Jan 4;46(D1):D608-17. PMID:29140435
Nucleic Acids Res. 2018 Jan 4;46(D1):D1074-D1082. PMID:29126136
Nucleic Acids Res., 45:D380-388 (2017).  PMID:27924025
Nucleic Acids Res. 2016 Jan 4;44(D1):D1202-13. PMID:26400175

>  <ROMol>  (268) 
<rdkit.Chem.rdchem.Mol object at 0x7c2905d02ce0>

>  <Drug_like>  (268) 
True

$$$$
Thymidine_ 5_6-dihydro-5_6-dihydroxy-_ (trans)-
     RDKit          2D

 19 20  0  0  0  0  0  0  0  0999 V2000
   -2.8392   -0.7775    0.0000 C   0  0  0  0  0  0  0  0  0  0  0  0
   -1.3620   -1.0378    0.0000 C   0  0  0  0  0  0  0  0  0  0  0  0
   -1.3620    0.4622    0.0000 C   0  0  0  0  0  0  0  0  0  0  0  0
   -0.0620    1.2122    0.0000 N   0  0  0  0  0  0  0  0  0  0  0  0
    1.2380    0.4622    0.0000 C   0  0  0  0  0  0  0  0  0  0  0  0
    1.2380   -1.0378    0.0000 N   0  0  0  0  0  0  0  0  0  0  0  0
    2.5369   -1.7880    0.0000 C   0  0  0  0  0  0  0  0  0  0  0  0
    3.6415   -2.7919    0.0000 C   0  0  0  0  0  0  0  0  0  0  0  0
    4.9434   -2.0468    0.0000 C   0  0  0  0  0  0  0  0  0  0  0  0
    5.5487   -3.4193    0.0000 O   0  0  0  0  0  0  0  0  0  0  0  0
    4.6373   -0.5859    0.0000 C   0  0  0  0  0  0  0  0  0  0  0  0
    6.6075   -0.3891    0.0000 C   0  0  0  0  0  0  0  0  0  0  0  0
    7.4829   -1.6071    0.0000 O   0  0  0  0  0  0  0  0  0  0  0  0
    3.1450   -0.4145    0.0000 O   0  0  0  0  0  0  0  0  0  0  0  0
   -0.0620   -1.7878    0.0000 C   0  0  0  0  0  0  0  0  0  0  0  0
   -1.0260   -2.9370    0.0000 O   0  0  0  0  0  0  0  0  0  0  0  0
    2.5369    1.2124    0.0000 O   0  0  0  0  0  0  0  0  0  0  0  0
   -3.0765    1.4525    0.0000 O   0  0  0  0  0  0  0  0  0  0  0  0
   -1.8747   -2.4474    0.0000 O   0  0  0  0  0  0  0  0  0  0  0  0
  2  1  1  6
  2  3  1  0
  3  4  2  0
  4  5  1  0
  5  6  1  0
  6  7  1  0
  7  8  1  0
  8  9  1  0
  9 10  1  0
  9 11  1  0
 11 12  1  0
 12 13  1  0
 11 14  1  0
  7 14  1  0
  6 15  1  0
  2 15  1  0
 15 16  1  0
  5 17  2  0
  3 18  1  0
  2 19  1  0
M  END
>  <cdk:Title>  (269) 
Thymidine_ 5_6-dihydro-5_6-dihydroxy-_ (trans)-

>  <1A2>  (269) 
N

>  <2A6>  (269) 
N

>  <2B6>  (269) 
N

>  <2C8>  (269) 
N

>  <2C9>  (269) 
N

>  <2C19>  (269) 
N

>  <2D6>  (269) 
N

>  <2E1>  (269) 
N

>  <3A4>  (269) 
N

>  <Citation>  (269) 
Nucleic Acids Res. 2018. Jan 4;46(D1):D608-17. PMID:29140435
Nucleic Acids Res. 2018 Jan 4;46(D1):D1074-D1082. PMID:29126136
Nucleic Acids Res., 45:D380-388 (2017).  PMID:27924025
Nucleic Acids Res. 2016 Jan 4;44(D1):D1202-13. PMID:26400175

>  <ROMol>  (269) 
<rdkit.Chem.rdchem.Mol object at 0x7c2905d02dc0>

>  <Drug_like>  (269) 
True

$$$$
Alpha-Triticene
     RDKit          2D

 16 15  0  0  0  0  0  0  0  0999 V2000
   19.4336   -0.2400    0.0000 C   0  0  0  0  0  0  0  0  0  0  0  0
   18.1346   -0.9900    0.0000 C   0  0  0  0  0  0  0  0  0  0  0  0
   16.8355   -0.2400    0.0000 C   0  0  0  0  0  0  0  0  0  0  0  0
   14.7051   -1.4700    0.0000 C   0  0  0  0  0  0  0  0  0  0  0  0
   13.4061   -0.7200    0.0000 C   0  0  0  0  0  0  0  0  0  0  0  0
   11.2757   -1.9500    0.0000 C   0  0  0  0  0  0  0  0  0  0  0  0
    9.5609   -0.9600    0.0000 C   0  0  0  0  0  0  0  0  0  0  0  0
    7.8462   -1.9500    0.0000 C   0  0  0  0  0  0  0  0  0  0  0  0
    6.1315   -0.9600    0.0000 C   0  0  0  0  0  0  0  0  0  0  0  0
    4.8324   -1.7100    0.0000 C   0  0  0  0  0  0  0  0  0  0  0  0
    3.5334   -0.9600    0.0000 C   0  0  0  0  0  0  0  0  0  0  0  0
    3.5334    0.5400    0.0000 C   0  0  0  0  0  0  0  0  0  0  0  0
    2.2343   -1.7100    0.0000 C   0  0  0  0  0  0  0  0  0  0  0  0
    2.2343   -3.2100    0.0000 C   0  0  0  0  0  0  0  0  0  0  0  0
    3.5334   -3.9600    0.0000 C   0  0  0  0  0  0  0  0  0  0  0  0
    3.5334   -5.4600    0.0000 O   0  0  0  0  0  0  0  0  0  0  0  0
  1  2  1  0
  2  3  1  0
  3  4  1  0
  4  5  1  0
  5  6  1  0
  6  7  1  0
  7  8  1  0
  8  9  1  0
  9 10  1  0
 10 11  1  0
 11 12  2  0
 11 13  1  0
 13 14  2  0
 14 15  1  0
 15 16  2  0
M  END
>  <cdk:Title>  (270) 
Alpha-Triticene

>  <1A2>  (270) 
N

>  <2A6>  (270) 
N

>  <2B6>  (270) 
N

>  <2C8>  (270) 
N

>  <2C9>  (270) 
N

>  <2C19>  (270) 
N

>  <2D6>  (270) 
N

>  <2E1>  (270) 
N

>  <3A4>  (270) 
N

>  <Citation>  (270) 
Nucleic Acids Res. 2018. Jan 4;46(D1):D608-17. PMID:29140435
Nucleic Acids Res. 2018 Jan 4;46(D1):D1074-D1082. PMID:29126136
Nucleic Acids Res., 45:D380-388 (2017).  PMID:27924025
Nucleic Acids Res. 2016 Jan 4;44(D1):D1202-13. PMID:26400175

>  <ROMol>  (270) 
<rdkit.Chem.rdchem.Mol object at 0x7c2905d02e30>

>  <Drug_like>  (270) 
True

$$$$
Pent-2-enyl hexanoate
     RDKit          2D

 13 12  0  0  0  0  0  0  0  0999 V2000
    5.3743    2.4295    0.0000 C   0  0  0  0  0  0  0  0  0  0  0  0
    6.6734    3.1795    0.0000 C   0  0  0  0  0  0  0  0  0  0  0  0
    7.9724    2.4295    0.0000 C   0  0  0  0  0  0  0  0  0  0  0  0
   10.1028    3.6595    0.0000 C   0  0  0  0  0  0  0  0  0  0  0  0
   11.4019    2.9095    0.0000 C   0  0  0  0  0  0  0  0  0  0  0  0
   12.7009    3.6595    0.0000 C   0  0  0  0  0  0  0  0  0  0  0  0
   12.7009    5.1595    0.0000 O   0  0  0  0  0  0  0  0  0  0  0  0
   13.9999    2.9095    0.0000 O   0  0  0  0  0  0  0  0  0  0  0  0
   15.2990    3.6595    0.0000 C   0  0  0  0  0  0  0  0  0  0  0  0
   16.5980    2.9095    0.0000 C   0  0  0  0  0  0  0  0  0  0  0  0
   16.5980    1.4095    0.0000 C   0  0  0  0  0  0  0  0  0  0  0  0
   15.2990    0.6595    0.0000 C   0  0  0  0  0  0  0  0  0  0  0  0
   15.2990   -0.8405    0.0000 C   0  0  0  0  0  0  0  0  0  0  0  0
  1  2  1  0
  2  3  1  0
  3  4  1  0
  4  5  1  0
  5  6  1  0
  6  7  2  0
  6  8  1  0
  8  9  1  0
  9 10  1  0
 10 11  2  0
 11 12  1  0
 12 13  1  0
M  END
>  <cdk:Title>  (271) 
Pent-2-enyl hexanoate

>  <1A2>  (271) 
N

>  <2A6>  (271) 
N

>  <2B6>  (271) 
N

>  <2C8>  (271) 
N

>  <2C9>  (271) 
N

>  <2C19>  (271) 
N

>  <2D6>  (271) 
N

>  <2E1>  (271) 
N

>  <3A4>  (271) 
N

>  <Citation>  (271) 
Nucleic Acids Res. 2018. Jan 4;46(D1):D608-17. PMID:29140435
Nucleic Acids Res. 2018 Jan 4;46(D1):D1074-D1082. PMID:29126136
Nucleic Acids Res., 45:D380-388 (2017).  PMID:27924025
Nucleic Acids Res. 2016 Jan 4;44(D1):D1202-13. PMID:26400175

>  <ROMol>  (271) 
<rdkit.Chem.rdchem.Mol object at 0x7c2905d02f10>

>  <Drug_like>  (271) 
True

$$$$
2-Chloro-1_3-dimethoxy-5-methylbenzene
     RDKit          2D

 12 12  0  0  0  0  0  0  0  0999 V2000
   -1.3000    0.7500    0.0000 C   0  0  0  0  0  0  0  0  0  0  0  0
    0.0000    1.5000    0.0000 C   0  0  0  0  0  0  0  0  0  0  0  0
    1.3000    0.7500    0.0000 C   0  0  0  0  0  0  0  0  0  0  0  0
    2.5989    1.5002    0.0000 Cl  0  0  0  0  0  0  0  0  0  0  0  0
    1.3000   -0.7500    0.0000 C   0  0  0  0  0  0  0  0  0  0  0  0
    0.0000   -1.5000    0.0000 C   0  0  0  0  0  0  0  0  0  0  0  0
   -1.3000   -0.7500    0.0000 C   0  0  0  0  0  0  0  0  0  0  0  0
   -2.5989   -1.5002    0.0000 C   0  0  0  0  0  0  0  0  0  0  0  0
    2.5989   -1.5002    0.0000 O   0  0  0  0  0  0  0  0  0  0  0  0
    3.8981   -0.7504    0.0000 C   0  0  0  0  0  0  0  0  0  0  0  0
    0.0000    3.0000    0.0000 O   0  0  0  0  0  0  0  0  0  0  0  0
   -1.2990    3.7500    0.0000 C   0  0  0  0  0  0  0  0  0  0  0  0
  1  2  2  0
  2  3  1  0
  3  4  1  0
  3  5  2  0
  5  6  1  0
  6  7  2  0
  1  7  1  0
  7  8  1  0
  5  9  1  0
  9 10  1  0
  2 11  1  0
 11 12  1  0
M  END
>  <cdk:Title>  (272) 
2-Chloro-1_3-dimethoxy-5-methylbenzene

>  <1A2>  (272) 
N

>  <2A6>  (272) 
N

>  <2B6>  (272) 
N

>  <2C8>  (272) 
N

>  <2C9>  (272) 
N

>  <2C19>  (272) 
N

>  <2D6>  (272) 
N

>  <2E1>  (272) 
N

>  <3A4>  (272) 
N

>  <Citation>  (272) 
Nucleic Acids Res. 2018. Jan 4;46(D1):D608-17. PMID:29140435
Nucleic Acids Res. 2018 Jan 4;46(D1):D1074-D1082. PMID:29126136
Nucleic Acids Res., 45:D380-388 (2017).  PMID:27924025
Nucleic Acids Res. 2016 Jan 4;44(D1):D1202-13. PMID:26400175

>  <ROMol>  (272) 
<rdkit.Chem.rdchem.Mol object at 0x7c2905d02ff0>

>  <Drug_like>  (272) 
True

$$$$
UNII-MH0uum21K0 component fwcglhyhguhpry-vifpvbqesa-N
     RDKit          2D

 11 11  0  0  0  0  0  0  0  0999 V2000
    1.6052   -3.6718    0.0000 C   0  0  0  0  0  0  0  0  0  0  0  0
    0.6003   -0.9089    0.0000 C   0  0  0  0  0  0  0  0  0  0  0  0
    2.0775   -0.6486    0.0000 C   0  0  0  0  0  0  0  0  0  0  0  0
   -0.6997   -1.6589    0.0000 C   0  0  0  0  0  0  0  0  0  0  0  0
   -1.9997   -0.9089    0.0000 C   0  0  0  0  0  0  0  0  0  0  0  0
   -1.9997    0.5911    0.0000 C   0  0  0  0  0  0  0  0  0  0  0  0
   -0.6997    1.3411    0.0000 C   0  0  0  0  0  0  0  0  0  0  0  0
    0.2643    2.4902    0.0000 C   0  0  0  0  0  0  0  0  0  0  0  0
    0.6003    0.5911    0.0000 C   0  0  0  0  0  0  0  0  0  0  0  0
    2.3148    1.5813    0.0000 O   0  0  0  0  0  0  0  0  0  0  0  0
   -1.9723    2.8580    0.0000 O   0  0  0  0  0  0  0  0  0  0  0  0
  1  2  1  0
  2  3  1  0
  2  4  1  0
  4  5  1  0
  5  6  1  0
  6  7  1  0
  7  8  1  1
  7  9  1  0
  2  9  1  0
  9 10  2  0
  7 11  1  0
M  END
>  <cdk:Title>  (273) 
UNII-MH0uum21K0 component fwcglhyhguhpry-vifpvbqesa-N

>  <1A2>  (273) 
N

>  <2A6>  (273) 
N

>  <2B6>  (273) 
N

>  <2C8>  (273) 
N

>  <2C9>  (273) 
N

>  <2C19>  (273) 
N

>  <2D6>  (273) 
N

>  <2E1>  (273) 
N

>  <3A4>  (273) 
N

>  <Citation>  (273) 
Nucleic Acids Res. 2018. Jan 4;46(D1):D608-17. PMID:29140435
Nucleic Acids Res. 2018 Jan 4;46(D1):D1074-D1082. PMID:29126136
Nucleic Acids Res., 45:D380-388 (2017).  PMID:27924025
Nucleic Acids Res. 2016 Jan 4;44(D1):D1202-13. PMID:26400175

>  <ROMol>  (273) 
<rdkit.Chem.rdchem.Mol object at 0x7c2905d03060>

>  <Drug_like>  (273) 
True

$$$$
3-SulfO-6-sulfonato-1-[(e)-2-(2_4_5-trimethylphenyl)diazen-1-yl]naphthalen-2-ola
     RDKit          2D

 30 32  0  0  0  0  0  0  0  0999 V2000
    5.1981    0.7504    0.0000 O   0  0  0  0  0  0  0  0  0  0  0  0
    3.8989    1.5002    0.0000 S   0  0  0  0  0  0  0  0  0  0  0  0
    4.8629    2.6494    0.0000 O   0  0  0  0  0  0  0  0  0  0  0  0
    2.9346    2.6491    0.0000 O   0  0  0  0  0  0  0  0  0  0  0  0
    2.6000    0.7500    0.0000 C   0  0  0  0  0  0  0  0  0  0  0  0
    1.3000    1.5000    0.0000 C   0  0  0  0  0  0  0  0  0  0  0  0
    0.0000    0.7500    0.0000 C   0  0  0  0  0  0  0  0  0  0  0  0
   -1.3000    1.5000    0.0000 C   0  0  0  0  0  0  0  0  0  0  0  0
   -2.6000    0.7500    0.0000 C   0  0  0  0  0  0  0  0  0  0  0  0
   -2.6000   -0.7500    0.0000 C   0  0  0  0  0  0  0  0  0  0  0  0
   -1.3000   -1.5000    0.0000 C   0  0  0  0  0  0  0  0  0  0  0  0
    0.0000   -0.7500    0.0000 C   0  0  0  0  0  0  0  0  0  0  0  0
    1.3000   -1.5000    0.0000 C   0  0  0  0  0  0  0  0  0  0  0  0
    1.3000   -3.0000    0.0000 N   0  0  0  0  0  0  0  0  0  0  0  0
    2.5990   -3.7500    0.0000 N   0  0  0  0  0  0  0  0  0  0  0  0
    2.5990   -5.2500    0.0000 C   0  0  0  0  0  0  0  0  0  0  0  0
    3.8987   -6.0006    0.0000 C   0  0  0  0  0  0  0  0  0  0  0  0
    3.8994   -7.5015    0.0000 C   0  0  0  0  0  0  0  0  0  0  0  0
    5.1987   -8.2510    0.0000 C   0  0  0  0  0  0  0  0  0  0  0  0
    2.6005   -8.2517    0.0000 C   0  0  0  0  0  0  0  0  0  0  0  0
    2.6005   -9.7517    0.0000 C   0  0  0  0  0  0  0  0  0  0  0  0
    1.3008   -7.5010    0.0000 C   0  0  0  0  0  0  0  0  0  0  0  0
    1.3001   -6.0002    0.0000 C   0  0  0  0  0  0  0  0  0  0  0  0
    0.0008   -5.2506    0.0000 C   0  0  0  0  0  0  0  0  0  0  0  0
    2.6000   -0.7500    0.0000 C   0  0  0  0  0  0  0  0  0  0  0  0
    3.8989   -1.5002    0.0000 O   0  0  0  0  0  0  0  0  0  0  0  0
   -3.8989    1.5002    0.0000 S   0  0  0  0  0  0  0  0  0  0  0  0
   -3.8987    3.0002    0.0000 O   0  0  0  0  0  0  0  0  0  0  0  0
   -5.3761    1.7609    0.0000 O   0  0  0  0  0  0  0  0  0  0  0  0
   -4.4122    0.0908    0.0000 O   0  0  0  0  0  0  0  0  0  0  0  0
  1  2  1  0
  2  3  2  0
  2  4  2  0
  2  5  1  0
  5  6  2  0
  6  7  1  0
  7  8  2  0
  8  9  1  0
  9 10  2  0
 10 11  1  0
 11 12  2  0
  7 12  1  0
 12 13  1  0
 13 14  1  0
 14 15  2  0
 15 16  1  0
 16 17  2  0
 17 18  1  0
 18 19  1  0
 18 20  2  0
 20 21  1  0
 20 22  1  0
 22 23  2  0
 16 23  1  0
 23 24  1  0
 13 25  2  0
  5 25  1  0
 25 26  1  0
  9 27  1  0
 27 28  1  0
 27 29  2  0
 27 30  2  0
M  CHG  2   1  -1  28  -1
M  END
>  <cdk:Title>  (274) 
3-SulfO-6-sulfonato-1-[(e)-2-(2_4_5-trimethylphenyl)diazen-1-yl]naphthalen-2-olate

>  <1A2>  (274) 
N

>  <2A6>  (274) 
N

>  <2B6>  (274) 
N

>  <2C8>  (274) 
N

>  <2C9>  (274) 
N

>  <2C19>  (274) 
N

>  <2D6>  (274) 
N

>  <2E1>  (274) 
N

>  <3A4>  (274) 
N

>  <Citation>  (274) 
Nucleic Acids Res. 2018. Jan 4;46(D1):D608-17. PMID:29140435
Nucleic Acids Res. 2018 Jan 4;46(D1):D1074-D1082. PMID:29126136
Nucleic Acids Res., 45:D380-388 (2017).  PMID:27924025
Nucleic Acids Res. 2016 Jan 4;44(D1):D1202-13. PMID:26400175

>  <ROMol>  (274) 
<rdkit.Chem.rdchem.Mol object at 0x7c2905d031b0>

>  <Drug_like>  (274) 
True

$$$$
Indoxyl glucuronide
     RDKit          2D

 22 24  0  0  0  0  0  0  0  0999 V2000
    6.1168    0.5101    0.0000 O   0  0  0  0  0  0  0  0  0  0  0  0
    4.8708    1.3776    0.0000 C   0  0  0  0  0  0  0  0  0  0  0  0
    5.0070    2.8614    0.0000 C   0  0  0  0  0  0  0  0  0  0  0  0
    6.3909    3.4976    0.0000 C   0  0  0  0  0  0  0  0  0  0  0  0
    7.4603    4.5494    0.0000 O   0  0  0  0  0  0  0  0  0  0  0  0
    7.6160    2.6220    0.0000 C   0  0  0  0  0  0  0  0  0  0  0  0
    9.0625    2.2250    0.0000 O   0  0  0  0  0  0  0  0  0  0  0  0
    7.4799    1.1382    0.0000 C   0  0  0  0  0  0  0  0  0  0  0  0
    7.8617   -0.3124    0.0000 C   0  0  0  0  0  0  0  0  0  0  0  0
    9.3088   -0.7071    0.0000 O   0  0  0  0  0  0  0  0  0  0  0  0
    6.7963   -1.3683    0.0000 O   0  0  0  0  0  0  0  0  0  0  0  0
    4.6260    4.3122    0.0000 O   0  0  0  0  0  0  0  0  0  0  0  0
    3.4227    1.7686    0.0000 O   0  0  0  0  0  0  0  0  0  0  0  0
    2.3600    0.7100    0.0000 C   0  0  0  0  0  0  0  0  0  0  0  0
   -0.2300    0.7200    0.0000 C   0  0  0  0  0  0  0  0  0  0  0  0
   -0.2400   -0.7800    0.0000 C   0  0  0  0  0  0  0  0  0  0  0  0
    1.0500   -1.5300    0.0000 N   0  0  0  0  0  0  0  0  0  0  0  0
    2.3600   -0.7900    0.0000 C   0  0  0  0  0  0  0  0  0  0  0  0
   -1.5300   -1.5300    0.0000 C   0  0  0  0  0  0  0  0  0  0  0  0
   -2.8300   -0.7800    0.0000 C   0  0  0  0  0  0  0  0  0  0  0  0
   -2.8300    0.7200    0.0000 C   0  0  0  0  0  0  0  0  0  0  0  0
   -1.5300    1.4700    0.0000 C   0  0  0  0  0  0  0  0  0  0  0  0
  1  2  1  0
  2  3  1  0
  3  4  1  0
  4  5  1  0
  4  6  1  0
  6  7  1  0
  6  8  1  0
  1  8  1  0
  8  9  1  0
  9 10  1  0
  9 11  2  0
  3 12  1  0
  2 13  1  0
 13 14  1  0
 14 15  1  0
 15 16  2  0
 16 17  1  0
 17 18  1  0
 14 18  2  0
 16 19  1  0
 19 20  2  0
 20 21  1  0
 21 22  2  0
 15 22  1  0
M  END
>  <cdk:Title>  (275) 
Indoxyl glucuronide

>  <1A2>  (275) 
N

>  <2A6>  (275) 
N

>  <2B6>  (275) 
N

>  <2C8>  (275) 
N

>  <2C9>  (275) 
N

>  <2C19>  (275) 
N

>  <2D6>  (275) 
N

>  <2E1>  (275) 
N

>  <3A4>  (275) 
N

>  <Citation>  (275) 
Nucleic Acids Res. 2018. Jan 4;46(D1):D608-17. PMID:29140435
Nucleic Acids Res. 2018 Jan 4;46(D1):D1074-D1082. PMID:29126136
Nucleic Acids Res., 45:D380-388 (2017).  PMID:27924025
Nucleic Acids Res. 2016 Jan 4;44(D1):D1202-13. PMID:26400175

>  <ROMol>  (275) 
<rdkit.Chem.rdchem.Mol object at 0x7c2905d03300>

>  <Drug_like>  (275) 
True

$$$$
Humulenol
     RDKit          2D

 16 16  0  0  0  0  0  0  0  0999 V2000
    7.3330   -1.9387    0.0000 C   0  0  0  0  0  0  0  0  0  0  0  0
    6.0623   -2.7357    0.0000 C   0  0  0  0  0  0  0  0  0  0  0  0
    6.1223   -4.2357    0.0000 C   0  0  0  0  0  0  0  0  0  0  0  0
    4.8523   -5.0257    0.0000 C   0  0  0  0  0  0  0  0  0  0  0  0
    3.5223   -4.3157    0.0000 C   0  0  0  0  0  0  0  0  0  0  0  0
    2.1923   -5.0157    0.0000 C   0  0  0  0  0  0  0  0  0  0  0  0
    2.1383   -6.5147    0.0000 C   0  0  0  0  0  0  0  0  0  0  0  0
    0.9223   -4.2257    0.0000 C   0  0  0  0  0  0  0  0  0  0  0  0
    0.9823   -2.7257    0.0000 C   0  0  0  0  0  0  0  0  0  0  0  0
    2.3023   -2.0257    0.0000 C   0  0  0  0  0  0  0  0  0  0  0  0
    0.9592    0.5896    0.0000 C   0  0  0  0  0  0  0  0  0  0  0  0
   -0.5025   -1.1446    0.0000 C   0  0  0  0  0  0  0  0  0  0  0  0
    2.7723   -0.5957    0.0000 C   0  0  0  0  0  0  0  0  0  0  0  0
    4.2823   -0.5957    0.0000 C   0  0  0  0  0  0  0  0  0  0  0  0
    4.7323   -2.0257    0.0000 C   0  0  0  0  0  0  0  0  0  0  0  0
   -0.5441   -3.9099    0.0000 O   0  0  0  0  0  0  0  0  0  0  0  0
  1  2  1  0
  2  3  2  0
  3  4  1  0
  4  5  1  0
  5  6  1  0
  6  7  2  0
  6  8  1  0
  8  9  1  0
  9 10  1  0
 10 11  1  0
 10 12  1  0
 10 13  1  0
 13 14  2  0
 14 15  1  0
  2 15  1  0
  8 16  1  0
M  END
>  <cdk:Title>  (276) 
Humulenol

>  <1A2>  (276) 
N

>  <2A6>  (276) 
N

>  <2B6>  (276) 
N

>  <2C8>  (276) 
N

>  <2C9>  (276) 
N

>  <2C19>  (276) 
N

>  <2D6>  (276) 
N

>  <2E1>  (276) 
N

>  <3A4>  (276) 
N

>  <Citation>  (276) 
Nucleic Acids Res. 2018. Jan 4;46(D1):D608-17. PMID:29140435
Nucleic Acids Res. 2018 Jan 4;46(D1):D1074-D1082. PMID:29126136
Nucleic Acids Res., 45:D380-388 (2017).  PMID:27924025
Nucleic Acids Res. 2016 Jan 4;44(D1):D1202-13. PMID:26400175

>  <ROMol>  (276) 
<rdkit.Chem.rdchem.Mol object at 0x7c2905d03370>

>  <Drug_like>  (276) 
True

$$$$
8-Iso-pga1
     RDKit          2D

 24 24  0  0  0  0  0  0  0  0999 V2000
    3.8481   -2.6541    0.0000 O   0  0  0  0  0  0  0  0  0  0  0  0
    2.4216   -3.1179    0.0000 C   0  0  0  0  0  0  0  0  0  0  0  0
    1.2116   -2.2379    0.0000 C   0  0  0  0  0  0  0  0  0  0  0  0
    0.0016   -3.1179    0.0000 C   0  0  0  0  0  0  0  0  0  0  0  0
    0.4616   -4.5379    0.0000 C   0  0  0  0  0  0  0  0  0  0  0  0
    1.9616   -4.5379    0.0000 C   0  0  0  0  0  0  0  0  0  0  0  0
   -0.9884   -1.4032    0.0000 C   0  0  0  0  0  0  0  0  0  0  0  0
   -2.4884   -1.4032    0.0000 C   0  0  0  0  0  0  0  0  0  0  0  0
   -3.2384   -0.1042    0.0000 C   0  0  0  0  0  0  0  0  0  0  0  0
   -1.8289    0.4089    0.0000 O   0  0  0  0  0  0  0  0  0  0  0  0
   -4.7384   -0.1042    0.0000 C   0  0  0  0  0  0  0  0  0  0  0  0
   -5.9685    2.0262    0.0000 C   0  0  0  0  0  0  0  0  0  0  0  0
   -7.9485    2.0261    0.0000 C   0  0  0  0  0  0  0  0  0  0  0  0
   -8.6985    3.3252    0.0000 C   0  0  0  0  0  0  0  0  0  0  0  0
  -10.1985    3.3251    0.0000 C   0  0  0  0  0  0  0  0  0  0  0  0
    3.1792   -0.0533    0.0000 C   0  0  0  0  0  0  0  0  0  0  0  0
    5.1159   -0.4653    0.0000 C   0  0  0  0  0  0  0  0  0  0  0  0
    6.4410    1.0059    0.0000 C   0  0  0  0  0  0  0  0  0  0  0  0
    8.3777    0.5939    0.0000 C   0  0  0  0  0  0  0  0  0  0  0  0
    9.7028    2.0652    0.0000 C   0  0  0  0  0  0  0  0  0  0  0  0
   11.1700    1.7530    0.0000 C   0  0  0  0  0  0  0  0  0  0  0  0
   12.1738    2.8676    0.0000 C   0  0  0  0  0  0  0  0  0  0  0  0
   13.6410    2.5555    0.0000 O   0  0  0  0  0  0  0  0  0  0  0  0
   11.7105    4.2943    0.0000 O   0  0  0  0  0  0  0  0  0  0  0  0
  1  2  2  0
  2  3  1  0
  3  4  1  0
  4  5  1  0
  5  6  2  0
  2  6  1  0
  4  7  1  0
  7  8  2  0
  8  9  1  0
  9 10  1  0
  9 11  1  0
 11 12  1  0
 12 13  1  0
 13 14  1  0
 14 15  1  0
  3 16  1  0
 16 17  1  0
 17 18  1  0
 18 19  1  0
 19 20  1  0
 20 21  1  0
 21 22  1  0
 22 23  1  0
 22 24  2  0
M  END
>  <cdk:Title>  (277) 
8-Iso-pga1

>  <1A2>  (277) 
N

>  <2A6>  (277) 
N

>  <2B6>  (277) 
N

>  <2C8>  (277) 
N

>  <2C9>  (277) 
N

>  <2C19>  (277) 
N

>  <2D6>  (277) 
N

>  <2E1>  (277) 
N

>  <3A4>  (277) 
N

>  <Citation>  (277) 
Nucleic Acids Res. 2018. Jan 4;46(D1):D608-17. PMID:29140435
Nucleic Acids Res. 2018 Jan 4;46(D1):D1074-D1082. PMID:29126136
Nucleic Acids Res., 45:D380-388 (2017).  PMID:27924025
Nucleic Acids Res. 2016 Jan 4;44(D1):D1202-13. PMID:26400175

>  <ROMol>  (277) 
<rdkit.Chem.rdchem.Mol object at 0x7c2905d034c0>

>  <Drug_like>  (277) 
True

$$$$
(Z)-11-Eicosen-1-ol
     RDKit          2D

 21 20  0  0  0  0  0  0  0  0999 V2000
    1.1807   -6.5601    0.0000 C   0  0  0  0  0  0  0  0  0  0  0  0
    2.6807   -6.5601    0.0000 C   0  0  0  0  0  0  0  0  0  0  0  0
    3.4307   -5.2611    0.0000 C   0  0  0  0  0  0  0  0  0  0  0  0
    5.8907   -5.2611    0.0000 C   0  0  0  0  0  0  0  0  0  0  0  0
    6.8807   -3.5464    0.0000 C   0  0  0  0  0  0  0  0  0  0  0  0
    8.8607   -3.5464    0.0000 C   0  0  0  0  0  0  0  0  0  0  0  0
    9.8507   -1.8316    0.0000 C   0  0  0  0  0  0  0  0  0  0  0  0
   11.3507   -1.8316    0.0000 C   0  0  0  0  0  0  0  0  0  0  0  0
   12.1007   -0.5326    0.0000 C   0  0  0  0  0  0  0  0  0  0  0  0
   13.6007   -0.5326    0.0000 C   0  0  0  0  0  0  0  0  0  0  0  0
   14.3507    0.7664    0.0000 C   0  0  0  0  0  0  0  0  0  0  0  0
   16.3307    0.7664    0.0000 C   0  0  0  0  0  0  0  0  0  0  0  0
   17.3207    2.4812    0.0000 C   0  0  0  0  0  0  0  0  0  0  0  0
   19.3007    2.4812    0.0000 C   0  0  0  0  0  0  0  0  0  0  0  0
   20.2907    4.1959    0.0000 C   0  0  0  0  0  0  0  0  0  0  0  0
   22.2707    4.1959    0.0000 C   0  0  0  0  0  0  0  0  0  0  0  0
   23.2607    5.9106    0.0000 C   0  0  0  0  0  0  0  0  0  0  0  0
   25.2407    5.9106    0.0000 C   0  0  0  0  0  0  0  0  0  0  0  0
   25.9907    7.2097    0.0000 C   0  0  0  0  0  0  0  0  0  0  0  0
   27.4907    7.2097    0.0000 C   0  0  0  0  0  0  0  0  0  0  0  0
   28.2407    5.9106    0.0000 O   0  0  0  0  0  0  0  0  0  0  0  0
  1  2  1  0
  2  3  1  0
  3  4  1  0
  4  5  1  0
  5  6  1  0
  6  7  1  0
  7  8  1  0
  8  9  1  0
  9 10  2  0
 10 11  1  0
 11 12  1  0
 12 13  1  0
 13 14  1  0
 14 15  1  0
 15 16  1  0
 16 17  1  0
 17 18  1  0
 18 19  1  0
 19 20  1  0
 20 21  1  0
M  END
>  <cdk:Title>  (278) 
(Z)-11-Eicosen-1-ol

>  <1A2>  (278) 
N

>  <2A6>  (278) 
N

>  <2B6>  (278) 
N

>  <2C8>  (278) 
N

>  <2C9>  (278) 
N

>  <2C19>  (278) 
N

>  <2D6>  (278) 
N

>  <2E1>  (278) 
N

>  <3A4>  (278) 
N

>  <Citation>  (278) 
Nucleic Acids Res. 2018. Jan 4;46(D1):D608-17. PMID:29140435
Nucleic Acids Res. 2018 Jan 4;46(D1):D1074-D1082. PMID:29126136
Nucleic Acids Res., 45:D380-388 (2017).  PMID:27924025
Nucleic Acids Res. 2016 Jan 4;44(D1):D1202-13. PMID:26400175

>  <ROMol>  (278) 
<rdkit.Chem.rdchem.Mol object at 0x7c2905d03530>

>  <Drug_like>  (278) 
True

$$$$
Juglone
     RDKit          2D

 13 14  0  0  0  0  0  0  0  0999 V2000
    2.6000    0.7500    0.0000 C   0  0  0  0  0  0  0  0  0  0  0  0
    1.3000    1.5000    0.0000 C   0  0  0  0  0  0  0  0  0  0  0  0
    0.0000    0.7500    0.0000 C   0  0  0  0  0  0  0  0  0  0  0  0
   -1.3000    1.5000    0.0000 C   0  0  0  0  0  0  0  0  0  0  0  0
   -2.6000    0.7500    0.0000 C   0  0  0  0  0  0  0  0  0  0  0  0
   -2.6000   -0.7500    0.0000 C   0  0  0  0  0  0  0  0  0  0  0  0
   -1.3000   -1.5000    0.0000 C   0  0  0  0  0  0  0  0  0  0  0  0
    0.0000   -0.7500    0.0000 C   0  0  0  0  0  0  0  0  0  0  0  0
    1.3000   -1.5000    0.0000 C   0  0  0  0  0  0  0  0  0  0  0  0
    2.6000   -0.7500    0.0000 C   0  0  0  0  0  0  0  0  0  0  0  0
    1.3000   -3.0000    0.0000 O   0  0  0  0  0  0  0  0  0  0  0  0
   -1.3000   -3.0000    0.0000 O   0  0  0  0  0  0  0  0  0  0  0  0
   -1.3000    3.0000    0.0000 O   0  0  0  0  0  0  0  0  0  0  0  0
  1  2  2  0
  2  3  1  0
  3  4  1  0
  4  5  1  0
  5  6  2  0
  6  7  1  0
  7  8  1  0
  3  8  2  0
  8  9  1  0
  9 10  2  0
  1 10  1  0
  9 11  1  0
  7 12  2  0
  4 13  2  0
M  END
>  <cdk:Title>  (279) 
Juglone

>  <1A2>  (279) 
N

>  <2A6>  (279) 
N

>  <2B6>  (279) 
N

>  <2C8>  (279) 
N

>  <2C9>  (279) 
N

>  <2C19>  (279) 
N

>  <2D6>  (279) 
N

>  <2E1>  (279) 
N

>  <3A4>  (279) 
N

>  <Citation>  (279) 
Nucleic Acids Res. 2018. Jan 4;46(D1):D608-17. PMID:29140435
Nucleic Acids Res. 2018 Jan 4;46(D1):D1074-D1082. PMID:29126136
Nucleic Acids Res., 45:D380-388 (2017).  PMID:27924025
Nucleic Acids Res. 2016 Jan 4;44(D1):D1202-13. PMID:26400175

>  <ROMol>  (279) 
<rdkit.Chem.rdchem.Mol object at 0x7c2905d03610>

>  <Drug_like>  (279) 
True

$$$$
16beta-Hydroxyestradiol
     RDKit          2D

 21 24  0  0  0  0  0  0  0  0999 V2000
   -4.3629   -3.8046    0.0000 C   0  0  0  0  0  0  0  0  0  0  0  0
   -5.6618   -4.5548    0.0000 O   0  0  0  0  0  0  0  0  0  0  0  0
   -4.3629   -2.3046    0.0000 C   0  0  0  0  0  0  0  0  0  0  0  0
   -3.0629   -1.5546    0.0000 C   0  0  0  0  0  0  0  0  0  0  0  0
   -1.7629   -2.3046    0.0000 C   0  0  0  0  0  0  0  0  0  0  0  0
   -1.7629   -3.8046    0.0000 C   0  0  0  0  0  0  0  0  0  0  0  0
   -3.0629   -4.5546    0.0000 C   0  0  0  0  0  0  0  0  0  0  0  0
   -0.4629   -4.5546    0.0000 C   0  0  0  0  0  0  0  0  0  0  0  0
    0.8371   -3.8046    0.0000 C   0  0  0  0  0  0  0  0  0  0  0  0
    0.8371   -2.3046    0.0000 C   0  0  0  0  0  0  0  0  0  0  0  0
    2.1371   -1.5546    0.0000 C   0  0  0  0  0  0  0  0  0  0  0  0
    3.5571   -2.0146    0.0000 C   0  0  0  0  0  0  0  0  0  0  0  0
    4.4371   -0.8046    0.0000 C   0  0  0  0  0  0  0  0  0  0  0  0
    3.5571    0.4054    0.0000 C   0  0  0  0  0  0  0  0  0  0  0  0
    4.8562    1.1555    0.0000 O   0  0  0  0  0  0  0  0  0  0  0  0
    2.1371   -0.0546    0.0000 C   0  0  0  0  0  0  0  0  0  0  0  0
    2.4453    2.8692    0.0000 C   0  0  0  0  0  0  0  0  0  0  0  0
    0.8371    0.6954    0.0000 C   0  0  0  0  0  0  0  0  0  0  0  0
   -0.4629   -0.0546    0.0000 C   0  0  0  0  0  0  0  0  0  0  0  0
   -0.4629   -1.5546    0.0000 C   0  0  0  0  0  0  0  0  0  0  0  0
    5.5517   -1.8084    0.0000 O   0  0  0  0  0  0  0  0  0  0  0  0
  1  2  1  0
  1  3  2  0
  3  4  1  0
  4  5  2  0
  5  6  1  0
  6  7  2  0
  1  7  1  0
  6  8  1  0
  8  9  1  0
  9 10  1  0
 10 11  1  0
 11 12  1  0
 12 13  1  0
 13 14  1  0
 14 15  1  0
 14 16  1  0
 11 16  1  0
 16 17  1  1
 16 18  1  0
 18 19  1  0
 19 20  1  0
 10 20  1  0
  5 20  1  0
 13 21  1  0
M  END
>  <cdk:Title>  (280) 
16beta-Hydroxyestradiol

>  <1A2>  (280) 
N

>  <2A6>  (280) 
N

>  <2B6>  (280) 
N

>  <2C8>  (280) 
N

>  <2C9>  (280) 
N

>  <2C19>  (280) 
N

>  <2D6>  (280) 
N

>  <2E1>  (280) 
N

>  <3A4>  (280) 
N

>  <Citation>  (280) 
Nucleic Acids Res. 2018. Jan 4;46(D1):D608-17. PMID:29140435
Nucleic Acids Res. 2018 Jan 4;46(D1):D1074-D1082. PMID:29126136
Nucleic Acids Res., 45:D380-388 (2017).  PMID:27924025
Nucleic Acids Res. 2016 Jan 4;44(D1):D1202-13. PMID:26400175

>  <ROMol>  (280) 
<rdkit.Chem.rdchem.Mol object at 0x7c2905d037d0>

>  <Drug_like>  (280) 
True

$$$$
Nequinate
     RDKit          2D

 27 29  0  0  0  0  0  0  0  0999 V2000
   -6.4968    3.0006    0.0000 C   0  0  0  0  0  0  0  0  0  0  0  0
   -6.4970    1.5006    0.0000 C   0  0  0  0  0  0  0  0  0  0  0  0
   -5.1981    0.7504    0.0000 C   0  0  0  0  0  0  0  0  0  0  0  0
   -3.8989    1.5002    0.0000 C   0  0  0  0  0  0  0  0  0  0  0  0
   -2.6000    0.7500    0.0000 C   0  0  0  0  0  0  0  0  0  0  0  0
   -1.3000    1.5000    0.0000 C   0  0  0  0  0  0  0  0  0  0  0  0
   -0.0000    0.7500    0.0000 C   0  0  0  0  0  0  0  0  0  0  0  0
   -0.0000   -0.7500    0.0000 C   0  0  0  0  0  0  0  0  0  0  0  0
   -1.3000   -1.5000    0.0000 C   0  0  0  0  0  0  0  0  0  0  0  0
   -2.6000   -0.7500    0.0000 C   0  0  0  0  0  0  0  0  0  0  0  0
   -3.8989   -1.5002    0.0000 O   0  0  0  0  0  0  0  0  0  0  0  0
   -3.8987   -3.0002    0.0000 C   0  0  0  0  0  0  0  0  0  0  0  0
   -5.1976   -3.7504    0.0000 C   0  0  0  0  0  0  0  0  0  0  0  0
   -5.1969   -5.2512    0.0000 C   0  0  0  0  0  0  0  0  0  0  0  0
   -6.4958   -6.0015    0.0000 C   0  0  0  0  0  0  0  0  0  0  0  0
   -7.7954   -5.2508    0.0000 C   0  0  0  0  0  0  0  0  0  0  0  0
   -7.7962   -3.7500    0.0000 C   0  0  0  0  0  0  0  0  0  0  0  0
   -6.4972   -2.9998    0.0000 C   0  0  0  0  0  0  0  0  0  0  0  0
    1.3000   -1.5000    0.0000 N   0  0  0  0  0  0  0  0  0  0  0  0
    2.6000   -0.7500    0.0000 C   0  0  0  0  0  0  0  0  0  0  0  0
    2.6000    0.7500    0.0000 C   0  0  0  0  0  0  0  0  0  0  0  0
    1.3000    1.5000    0.0000 C   0  0  0  0  0  0  0  0  0  0  0  0
    1.3000    3.0000    0.0000 O   0  0  0  0  0  0  0  0  0  0  0  0
    3.8989    1.5002    0.0000 C   0  0  0  0  0  0  0  0  0  0  0  0
    3.8987    3.0002    0.0000 O   0  0  0  0  0  0  0  0  0  0  0  0
    5.1981    0.7504    0.0000 O   0  0  0  0  0  0  0  0  0  0  0  0
    6.4970    1.5006    0.0000 C   0  0  0  0  0  0  0  0  0  0  0  0
  1  2  1  0
  2  3  1  0
  3  4  1  0
  4  5  1  0
  5  6  2  0
  6  7  1  0
  7  8  2  0
  8  9  1  0
  9 10  2  0
  5 10  1  0
 10 11  1  0
 11 12  1  0
 12 13  1  0
 13 14  2  0
 14 15  1  0
 15 16  2  0
 16 17  1  0
 17 18  2  0
 13 18  1  0
  8 19  1  0
 19 20  1  0
 20 21  2  0
 21 22  1  0
  7 22  1  0
 22 23  2  0
 21 24  1  0
 24 25  2  0
 24 26  1  0
 26 27  1  0
M  END
>  <cdk:Title>  (281) 
Nequinate

>  <1A2>  (281) 
N

>  <2A6>  (281) 
N

>  <2B6>  (281) 
N

>  <2C8>  (281) 
N

>  <2C9>  (281) 
N

>  <2C19>  (281) 
N

>  <2D6>  (281) 
N

>  <2E1>  (281) 
N

>  <3A4>  (281) 
N

>  <Citation>  (281) 
Nucleic Acids Res. 2018. Jan 4;46(D1):D608-17. PMID:29140435
Nucleic Acids Res. 2018 Jan 4;46(D1):D1074-D1082. PMID:29126136
Nucleic Acids Res., 45:D380-388 (2017).  PMID:27924025
Nucleic Acids Res. 2016 Jan 4;44(D1):D1202-13. PMID:26400175

>  <ROMol>  (281) 
<rdkit.Chem.rdchem.Mol object at 0x7c2905d03840>

>  <Drug_like>  (281) 
True

$$$$
(8Z_10R)-10-Hydroxy-10-[(2R_3S)-3-[(2Z)-oct-2-en-1-yl]oxiran-2-yl]deca-5_8-dieno
     RDKit          2D

 24 24  0  0  0  0  0  0  0  0999 V2000
  -11.6676   -5.0472    0.0000 O   0  0  0  0  0  0  0  0  0  0  0  0
  -10.7030   -3.8974    0.0000 C   0  0  0  0  0  0  0  0  0  0  0  0
  -10.1893   -5.3067    0.0000 C   0  0  0  0  0  0  0  0  0  0  0  0
   -8.2396   -4.9618    0.0000 C   0  0  0  0  0  0  0  0  0  0  0  0
   -8.2388   -6.4618    0.0000 O   0  0  0  0  0  0  0  0  0  0  0  0
   -7.7273   -3.5520    0.0000 C   0  0  0  0  0  0  0  0  0  0  0  0
   -6.2502   -3.2908    0.0000 C   0  0  0  0  0  0  0  0  0  0  0  0
   -5.2855   -4.4393    0.0000 C   0  0  0  0  0  0  0  0  0  0  0  0
   -5.7977   -5.8491    0.0000 C   0  0  0  0  0  0  0  0  0  0  0  0
   -4.8329   -6.9977    0.0000 C   0  0  0  0  0  0  0  0  0  0  0  0
   -1.9379   -6.4856    0.0000 C   0  0  0  0  0  0  0  0  0  0  0  0
   -1.2617   -4.6247    0.0000 C   0  0  0  0  0  0  0  0  0  0  0  0
    1.1607   -4.1962    0.0000 C   0  0  0  0  0  0  0  0  0  0  0  0
    1.6730   -2.7864    0.0000 C   0  0  0  0  0  0  0  0  0  0  0  0
    3.1501   -2.5251    0.0000 O   0  0  0  0  0  0  0  0  0  0  0  0
    0.7082   -1.6378    0.0000 O   0  0  0  0  0  0  0  0  0  0  0  0
  -11.6674   -2.7485    0.0000 C   0  0  0  0  0  0  0  0  0  0  0  0
  -13.6172   -3.0928    0.0000 C   0  0  0  0  0  0  0  0  0  0  0  0
  -14.1300   -4.5024    0.0000 C   0  0  0  0  0  0  0  0  0  0  0  0
  -13.1655   -5.6513    0.0000 C   0  0  0  0  0  0  0  0  0  0  0  0
  -13.6783   -7.0609    0.0000 C   0  0  0  0  0  0  0  0  0  0  0  0
  -15.6281   -7.4052    0.0000 C   0  0  0  0  0  0  0  0  0  0  0  0
  -16.1408   -8.8148    0.0000 C   0  0  0  0  0  0  0  0  0  0  0  0
  -17.6180   -9.0756    0.0000 C   0  0  0  0  0  0  0  0  0  0  0  0
  1  2  1  0
  2  3  1  0
  1  3  1  0
  3  4  1  0
  4  5  1  0
  4  6  1  0
  6  7  2  0
  7  8  1  0
  8  9  1  0
  9 10  2  0
 10 11  1  0
 11 12  1  0
 12 13  1  0
 13 14  1  0
 14 15  1  0
 14 16  2  0
  2 17  1  0
 17 18  1  0
 18 19  2  0
 19 20  1  0
 20 21  1  0
 21 22  1  0
 22 23  1  0
 23 24  1  0
M  END
>  <cdk:Title>  (282) 
(8Z_10R)-10-Hydroxy-10-[(2R_3S)-3-[(2Z)-oct-2-en-1-yl]oxiran-2-yl]deca-5_8-dienoic acid

>  <1A2>  (282) 
N

>  <2A6>  (282) 
N

>  <2B6>  (282) 
N

>  <2C8>  (282) 
N

>  <2C9>  (282) 
N

>  <2C19>  (282) 
N

>  <2D6>  (282) 
N

>  <2E1>  (282) 
N

>  <3A4>  (282) 
N

>  <Citation>  (282) 
Nucleic Acids Res. 2018. Jan 4;46(D1):D608-17. PMID:29140435
Nucleic Acids Res. 2018 Jan 4;46(D1):D1074-D1082. PMID:29126136
Nucleic Acids Res., 45:D380-388 (2017).  PMID:27924025
Nucleic Acids Res. 2016 Jan 4;44(D1):D1202-13. PMID:26400175

>  <ROMol>  (282) 
<rdkit.Chem.rdchem.Mol object at 0x7c2905d03920>

>  <Drug_like>  (282) 
True

$$$$
Ethyl (e)-3-hexenoate
     RDKit          2D

 10  9  0  0  0  0  0  0  0  0999 V2000
    6.9327    2.2579    0.0000 O   0  0  0  0  0  0  0  0  0  0  0  0
    6.9327    0.7579    0.0000 C   0  0  0  0  0  0  0  0  0  0  0  0
    8.2318    0.0079    0.0000 C   0  0  0  0  0  0  0  0  0  0  0  0
    5.6337    3.0079    0.0000 C   0  0  0  0  0  0  0  0  0  0  0  0
    4.3347    2.2579    0.0000 O   0  0  0  0  0  0  0  0  0  0  0  0
    5.6337    4.5079    0.0000 C   0  0  0  0  0  0  0  0  0  0  0  0
    4.3347    5.2579    0.0000 C   0  0  0  0  0  0  0  0  0  0  0  0
    3.0356    4.5079    0.0000 C   0  0  0  0  0  0  0  0  0  0  0  0
    3.0356    3.0079    0.0000 C   0  0  0  0  0  0  0  0  0  0  0  0
    1.7366    2.2579    0.0000 C   0  0  0  0  0  0  0  0  0  0  0  0
  1  2  1  0
  2  3  1  0
  1  4  1  0
  4  5  2  0
  4  6  1  0
  6  7  1  0
  7  8  2  0
  8  9  1  0
  9 10  1  0
M  END
>  <cdk:Title>  (283) 
Ethyl (e)-3-hexenoate

>  <1A2>  (283) 
N

>  <2A6>  (283) 
N

>  <2B6>  (283) 
N

>  <2C8>  (283) 
N

>  <2C9>  (283) 
N

>  <2C19>  (283) 
N

>  <2D6>  (283) 
N

>  <2E1>  (283) 
N

>  <3A4>  (283) 
N

>  <Citation>  (283) 
Nucleic Acids Res. 2018. Jan 4;46(D1):D608-17. PMID:29140435
Nucleic Acids Res. 2018 Jan 4;46(D1):D1074-D1082. PMID:29126136
Nucleic Acids Res., 45:D380-388 (2017).  PMID:27924025
Nucleic Acids Res. 2016 Jan 4;44(D1):D1202-13. PMID:26400175

>  <ROMol>  (283) 
<rdkit.Chem.rdchem.Mol object at 0x7c2905d03990>

>  <Drug_like>  (283) 
True

$$$$
(Z)-5-Hexadecenoic acid
     RDKit          2D

 18 17  0  0  0  0  0  0  0  0999 V2000
    0.5744   -4.8975    0.0000 C   0  0  0  0  0  0  0  0  0  0  0  0
    2.0744   -4.8975    0.0000 C   0  0  0  0  0  0  0  0  0  0  0  0
    2.8244   -3.5985    0.0000 C   0  0  0  0  0  0  0  0  0  0  0  0
    5.2844   -3.5985    0.0000 C   0  0  0  0  0  0  0  0  0  0  0  0
    6.0344   -2.2995    0.0000 C   0  0  0  0  0  0  0  0  0  0  0  0
    8.4944   -2.2995    0.0000 C   0  0  0  0  0  0  0  0  0  0  0  0
    9.4844   -0.5847    0.0000 C   0  0  0  0  0  0  0  0  0  0  0  0
   11.4644   -0.5847    0.0000 C   0  0  0  0  0  0  0  0  0  0  0  0
   12.4544    1.1300    0.0000 C   0  0  0  0  0  0  0  0  0  0  0  0
   13.9544    1.1300    0.0000 C   0  0  0  0  0  0  0  0  0  0  0  0
   14.7044    2.4290    0.0000 C   0  0  0  0  0  0  0  0  0  0  0  0
   16.2044    2.4290    0.0000 C   0  0  0  0  0  0  0  0  0  0  0  0
   16.9544    3.7281    0.0000 C   0  0  0  0  0  0  0  0  0  0  0  0
   18.9344    3.7281    0.0000 C   0  0  0  0  0  0  0  0  0  0  0  0
   19.6844    5.0271    0.0000 C   0  0  0  0  0  0  0  0  0  0  0  0
   21.1844    5.0271    0.0000 C   0  0  0  0  0  0  0  0  0  0  0  0
   21.9344    3.7281    0.0000 O   0  0  0  0  0  0  0  0  0  0  0  0
   21.9344    6.3261    0.0000 O   0  0  0  0  0  0  0  0  0  0  0  0
  1  2  1  0
  2  3  1  0
  3  4  1  0
  4  5  1  0
  5  6  1  0
  6  7  1  0
  7  8  1  0
  8  9  1  0
  9 10  1  0
 10 11  1  0
 11 12  2  0
 12 13  1  0
 13 14  1  0
 14 15  1  0
 15 16  1  0
 16 17  2  0
 16 18  1  0
M  END
>  <cdk:Title>  (284) 
(Z)-5-Hexadecenoic acid

>  <1A2>  (284) 
N

>  <2A6>  (284) 
N

>  <2B6>  (284) 
N

>  <2C8>  (284) 
N

>  <2C9>  (284) 
N

>  <2C19>  (284) 
N

>  <2D6>  (284) 
N

>  <2E1>  (284) 
N

>  <3A4>  (284) 
N

>  <Citation>  (284) 
Nucleic Acids Res. 2018. Jan 4;46(D1):D608-17. PMID:29140435
Nucleic Acids Res. 2018 Jan 4;46(D1):D1074-D1082. PMID:29126136
Nucleic Acids Res., 45:D380-388 (2017).  PMID:27924025
Nucleic Acids Res. 2016 Jan 4;44(D1):D1202-13. PMID:26400175

>  <ROMol>  (284) 
<rdkit.Chem.rdchem.Mol object at 0x7c2905d03a00>

>  <Drug_like>  (284) 
True

$$$$
5_6_7_8-Tetrahydro-4-methylquinoline
     RDKit          2D

 11 12  0  0  0  0  0  0  0  0999 V2000
    1.3000    3.0000    0.0000 C   0  0  0  0  0  0  0  0  0  0  0  0
    1.3000    1.5000    0.0000 C   0  0  0  0  0  0  0  0  0  0  0  0
    2.6000    0.7500    0.0000 C   0  0  0  0  0  0  0  0  0  0  0  0
    2.6000   -0.7500    0.0000 C   0  0  0  0  0  0  0  0  0  0  0  0
    1.3000   -1.5000    0.0000 N   0  0  0  0  0  0  0  0  0  0  0  0
   -0.0000   -0.7500    0.0000 C   0  0  0  0  0  0  0  0  0  0  0  0
   -0.0000    0.7500    0.0000 C   0  0  0  0  0  0  0  0  0  0  0  0
   -1.3000    1.5000    0.0000 C   0  0  0  0  0  0  0  0  0  0  0  0
   -2.6000    0.7500    0.0000 C   0  0  0  0  0  0  0  0  0  0  0  0
   -2.6000   -0.7500    0.0000 C   0  0  0  0  0  0  0  0  0  0  0  0
   -1.3000   -1.5000    0.0000 C   0  0  0  0  0  0  0  0  0  0  0  0
  1  2  1  0
  2  3  2  0
  3  4  1  0
  4  5  2  0
  5  6  1  0
  6  7  2  0
  2  7  1  0
  7  8  1  0
  8  9  1  0
  9 10  1  0
 10 11  1  0
  6 11  1  0
M  END
>  <cdk:Title>  (285) 
5_6_7_8-Tetrahydro-4-methylquinoline

>  <1A2>  (285) 
N

>  <2A6>  (285) 
N

>  <2B6>  (285) 
N

>  <2C8>  (285) 
N

>  <2C9>  (285) 
N

>  <2C19>  (285) 
N

>  <2D6>  (285) 
N

>  <2E1>  (285) 
N

>  <3A4>  (285) 
N

>  <Citation>  (285) 
Nucleic Acids Res. 2018. Jan 4;46(D1):D608-17. PMID:29140435
Nucleic Acids Res. 2018 Jan 4;46(D1):D1074-D1082. PMID:29126136
Nucleic Acids Res., 45:D380-388 (2017).  PMID:27924025
Nucleic Acids Res. 2016 Jan 4;44(D1):D1202-13. PMID:26400175

>  <ROMol>  (285) 
<rdkit.Chem.rdchem.Mol object at 0x7c2905d03a70>

>  <Drug_like>  (285) 
True

$$$$
SCHEMBL311379
     RDKit          2D

 14 14  0  0  0  0  0  0  0  0999 V2000
    5.3541    0.6090    0.0000 C   0  0  0  0  0  0  0  0  0  0  0  0
    4.3900   -0.5401    0.0000 C   0  0  0  0  0  0  0  0  0  0  0  0
    2.9128   -0.2798    0.0000 C   0  0  0  0  0  0  0  0  0  0  0  0
    1.9487   -1.4290    0.0000 C   0  0  0  0  0  0  0  0  0  0  0  0
   -0.0012   -1.0854    0.0000 C   0  0  0  0  0  0  0  0  0  0  0  0
   -0.0012   -2.5854    0.0000 C   0  0  0  0  0  0  0  0  0  0  0  0
    0.5115   -3.9950    0.0000 C   0  0  0  0  0  0  0  0  0  0  0  0
   -1.3012   -3.3354    0.0000 C   0  0  0  0  0  0  0  0  0  0  0  0
   -2.6012   -2.5854    0.0000 C   0  0  0  0  0  0  0  0  0  0  0  0
   -2.6012   -1.0854    0.0000 C   0  0  0  0  0  0  0  0  0  0  0  0
   -1.3012   -0.3354    0.0000 C   0  0  0  0  0  0  0  0  0  0  0  0
    0.5883    1.9170    0.0000 C   0  0  0  0  0  0  0  0  0  0  0  0
   -2.8823    1.5493    0.0000 C   0  0  0  0  0  0  0  0  0  0  0  0
    2.4619   -2.8385    0.0000 O   0  0  0  0  0  0  0  0  0  0  0  0
  1  2  1  0
  2  3  2  0
  3  4  1  0
  4  5  1  0
  5  6  1  0
  6  7  1  0
  6  8  1  0
  8  9  2  0
  9 10  1  0
 10 11  1  0
  5 11  1  0
 11 12  1  0
 11 13  1  0
  4 14  2  0
M  END
>  <cdk:Title>  (286) 
SCHEMBL311379

>  <1A2>  (286) 
N

>  <2A6>  (286) 
N

>  <2B6>  (286) 
N

>  <2C8>  (286) 
N

>  <2C9>  (286) 
N

>  <2C19>  (286) 
N

>  <2D6>  (286) 
N

>  <2E1>  (286) 
N

>  <3A4>  (286) 
N

>  <Citation>  (286) 
Nucleic Acids Res. 2018. Jan 4;46(D1):D608-17. PMID:29140435
Nucleic Acids Res. 2018 Jan 4;46(D1):D1074-D1082. PMID:29126136
Nucleic Acids Res., 45:D380-388 (2017).  PMID:27924025
Nucleic Acids Res. 2016 Jan 4;44(D1):D1202-13. PMID:26400175

>  <ROMol>  (286) 
<rdkit.Chem.rdchem.Mol object at 0x7c2905d03ae0>

>  <Drug_like>  (286) 
True

$$$$
Taurochenodeoxycholic acid
     RDKit          2D

 34 37  0  0  0  0  0  0  0  0999 V2000
   -4.9823   -3.9126    0.0000 C   0  0  0  0  0  0  0  0  0  0  0  0
   -4.9823   -5.4126    0.0000 C   0  0  0  0  0  0  0  0  0  0  0  0
   -3.6823   -6.1626    0.0000 C   0  0  0  0  0  0  0  0  0  0  0  0
   -2.3823   -5.4126    0.0000 C   0  0  0  0  0  0  0  0  0  0  0  0
   -2.3823   -3.9126    0.0000 C   0  0  0  0  0  0  0  0  0  0  0  0
   -3.6823   -3.1626    0.0000 C   0  0  0  0  0  0  0  0  0  0  0  0
   -2.0385   -1.9627    0.0000 C   0  0  0  0  0  0  0  0  0  0  0  0
   -1.0823   -3.1626    0.0000 C   0  0  0  0  0  0  0  0  0  0  0  0
    0.2177   -3.9126    0.0000 C   0  0  0  0  0  0  0  0  0  0  0  0
    0.2177   -5.4126    0.0000 C   0  0  0  0  0  0  0  0  0  0  0  0
   -1.0823   -6.1626    0.0000 C   0  0  0  0  0  0  0  0  0  0  0  0
    0.7304   -6.8222    0.0000 O   0  0  0  0  0  0  0  0  0  0  0  0
    1.5177   -3.1626    0.0000 C   0  0  0  0  0  0  0  0  0  0  0  0
    1.5177   -1.6626    0.0000 C   0  0  0  0  0  0  0  0  0  0  0  0
    0.2177   -0.9126    0.0000 C   0  0  0  0  0  0  0  0  0  0  0  0
   -1.0823   -1.6626    0.0000 C   0  0  0  0  0  0  0  0  0  0  0  0
    1.7780    0.7836    0.0000 C   0  0  0  0  0  0  0  0  0  0  0  0
    2.9477   -1.2026    0.0000 C   0  0  0  0  0  0  0  0  0  0  0  0
    3.8277   -2.4126    0.0000 C   0  0  0  0  0  0  0  0  0  0  0  0
    2.9477   -3.6326    0.0000 C   0  0  0  0  0  0  0  0  0  0  0  0
    5.4948    0.2657    0.0000 C   0  0  0  0  0  0  0  0  0  0  0  0
    4.5314    1.4154    0.0000 C   0  0  0  0  0  0  0  0  0  0  0  0
    7.2089   -0.7254    0.0000 C   0  0  0  0  0  0  0  0  0  0  0  0
    8.5084    0.0237    0.0000 C   0  0  0  0  0  0  0  0  0  0  0  0
    9.8069   -0.7271    0.0000 C   0  0  0  0  0  0  0  0  0  0  0  0
   11.1065    0.0220    0.0000 N   0  0  0  0  0  0  0  0  0  0  0  0
   12.4050   -0.7288    0.0000 C   0  0  0  0  0  0  0  0  0  0  0  0
   13.7046    0.0203    0.0000 C   0  0  0  0  0  0  0  0  0  0  0  0
   15.0031   -0.7305    0.0000 S   0  0  0  0  0  0  0  0  0  0  0  0
   15.0021   -2.2305    0.0000 O   0  0  0  0  0  0  0  0  0  0  0  0
   16.4801   -0.9920    0.0000 O   0  0  0  0  0  0  0  0  0  0  0  0
   15.5171    0.6787    0.0000 O   0  0  0  0  0  0  0  0  0  0  0  0
    9.8060   -2.2271    0.0000 O   0  0  0  0  0  0  0  0  0  0  0  0
   -6.4595   -5.1523    0.0000 O   0  0  0  0  0  0  0  0  0  0  0  0
  1  2  1  0
  2  3  1  0
  3  4  1  0
  4  5  1  0
  5  6  1  0
  1  6  1  0
  5  7  1  1
  5  8  1  0
  8  9  1  0
  9 10  1  0
 10 11  1  0
  4 11  1  0
 10 12  1  0
  9 13  1  0
 13 14  1  0
 14 15  1  0
 15 16  1  0
  8 16  1  0
 14 17  1  1
 14 18  1  0
 18 19  1  0
 19 20  1  0
 13 20  1  0
 18 21  1  0
 21 22  1  0
 21 23  1  0
 23 24  1  0
 24 25  1  0
 25 26  1  0
 26 27  1  0
 27 28  1  0
 28 29  1  0
 29 30  1  0
 29 31  2  0
 29 32  2  0
 25 33  2  0
  2 34  1  0
M  END
>  <cdk:Title>  (287) 
Taurochenodeoxycholic acid

>  <1A2>  (287) 
N

>  <2A6>  (287) 
N

>  <2B6>  (287) 
N

>  <2C8>  (287) 
N

>  <2C9>  (287) 
N

>  <2C19>  (287) 
N

>  <2D6>  (287) 
N

>  <2E1>  (287) 
N

>  <3A4>  (287) 
N

>  <Citation>  (287) 
Nucleic Acids Res. 2018. Jan 4;46(D1):D608-17. PMID:29140435
Nucleic Acids Res. 2018 Jan 4;46(D1):D1074-D1082. PMID:29126136
Nucleic Acids Res., 45:D380-388 (2017).  PMID:27924025
Nucleic Acids Res. 2016 Jan 4;44(D1):D1202-13. PMID:26400175

>  <ROMol>  (287) 
<rdkit.Chem.rdchem.Mol object at 0x7c2905d03b50>

>  <Drug_like>  (287) 
True

$$$$
1-Hydroxy-3-nonanone
     RDKit          2D

 11 10  0  0  0  0  0  0  0  0999 V2000
    1.9044    2.4256    0.0000 C   0  0  0  0  0  0  0  0  0  0  0  0
    3.4044    2.4256    0.0000 C   0  0  0  0  0  0  0  0  0  0  0  0
    4.1544    1.1265    0.0000 C   0  0  0  0  0  0  0  0  0  0  0  0
    6.1344    1.1265    0.0000 C   0  0  0  0  0  0  0  0  0  0  0  0
    7.3644   -1.0039    0.0000 C   0  0  0  0  0  0  0  0  0  0  0  0
    8.8644   -1.0039    0.0000 C   0  0  0  0  0  0  0  0  0  0  0  0
    9.8544   -2.7186    0.0000 C   0  0  0  0  0  0  0  0  0  0  0  0
   11.3544   -2.7186    0.0000 C   0  0  0  0  0  0  0  0  0  0  0  0
   12.1044   -4.0177    0.0000 C   0  0  0  0  0  0  0  0  0  0  0  0
   13.6044   -4.0177    0.0000 O   0  0  0  0  0  0  0  0  0  0  0  0
    9.1044   -4.0177    0.0000 O   0  0  0  0  0  0  0  0  0  0  0  0
  1  2  1  0
  2  3  1  0
  3  4  1  0
  4  5  1  0
  5  6  1  0
  6  7  1  0
  7  8  1  0
  8  9  1  0
  9 10  1  0
  7 11  2  0
M  END
>  <cdk:Title>  (288) 
1-Hydroxy-3-nonanone

>  <1A2>  (288) 
N

>  <2A6>  (288) 
N

>  <2B6>  (288) 
N

>  <2C8>  (288) 
N

>  <2C9>  (288) 
N

>  <2C19>  (288) 
N

>  <2D6>  (288) 
N

>  <2E1>  (288) 
N

>  <3A4>  (288) 
N

>  <Citation>  (288) 
Nucleic Acids Res. 2018. Jan 4;46(D1):D608-17. PMID:29140435
Nucleic Acids Res. 2018 Jan 4;46(D1):D1074-D1082. PMID:29126136
Nucleic Acids Res., 45:D380-388 (2017).  PMID:27924025
Nucleic Acids Res. 2016 Jan 4;44(D1):D1202-13. PMID:26400175

>  <ROMol>  (288) 
<rdkit.Chem.rdchem.Mol object at 0x7c2905d03bc0>

>  <Drug_like>  (288) 
True

$$$$
1-(2-Furanylmethyl)-1H-pyrrole
     RDKit          2D

 11 12  0  0  0  0  0  0  0  0999 V2000
    1.8148    0.5762    0.0000 C   0  0  0  0  0  0  0  0  0  0  0  0
    2.5648    1.8753    0.0000 C   0  0  0  0  0  0  0  0  0  0  0  0
    1.5564    2.9886    0.0000 C   0  0  0  0  0  0  0  0  0  0  0  0
    0.1893    2.3808    0.0000 N   0  0  0  0  0  0  0  0  0  0  0  0
    0.3464    0.8929    0.0000 C   0  0  0  0  0  0  0  0  0  0  0  0
   -1.1097    3.1308    0.0000 C   0  0  0  0  0  0  0  0  0  0  0  0
   -2.4088    2.3808    0.0000 C   0  0  0  0  0  0  0  0  0  0  0  0
   -3.7779    2.9830    0.0000 C   0  0  0  0  0  0  0  0  0  0  0  0
   -4.7827    1.8694    0.0000 C   0  0  0  0  0  0  0  0  0  0  0  0
   -4.0366    0.5766    0.0000 C   0  0  0  0  0  0  0  0  0  0  0  0
   -2.5727    0.8855    0.0000 O   0  0  0  0  0  0  0  0  0  0  0  0
  1  2  1  0
  2  3  2  0
  3  4  1  0
  4  5  1  0
  1  5  2  0
  4  6  1  0
  6  7  1  0
  7  8  2  0
  8  9  1  0
  9 10  2  0
 10 11  1  0
  7 11  1  0
M  END
>  <cdk:Title>  (289) 
1-(2-Furanylmethyl)-1H-pyrrole

>  <1A2>  (289) 
N

>  <2A6>  (289) 
N

>  <2B6>  (289) 
N

>  <2C8>  (289) 
N

>  <2C9>  (289) 
N

>  <2C19>  (289) 
N

>  <2D6>  (289) 
N

>  <2E1>  (289) 
N

>  <3A4>  (289) 
N

>  <Citation>  (289) 
Nucleic Acids Res. 2018. Jan 4;46(D1):D608-17. PMID:29140435
Nucleic Acids Res. 2018 Jan 4;46(D1):D1074-D1082. PMID:29126136
Nucleic Acids Res., 45:D380-388 (2017).  PMID:27924025
Nucleic Acids Res. 2016 Jan 4;44(D1):D1202-13. PMID:26400175

>  <ROMol>  (289) 
<rdkit.Chem.rdchem.Mol object at 0x7c2905d03c30>

>  <Drug_like>  (289) 
True

$$$$
Octyl butanoate
     RDKit          2D

 14 13  0  0  0  0  0  0  0  0999 V2000
    1.2152    4.0712    0.0000 C   0  0  0  0  0  0  0  0  0  0  0  0
    1.9652    2.7722    0.0000 C   0  0  0  0  0  0  0  0  0  0  0  0
    3.4652    2.7722    0.0000 C   0  0  0  0  0  0  0  0  0  0  0  0
    4.4552    1.0574    0.0000 C   0  0  0  0  0  0  0  0  0  0  0  0
    6.9152    1.0574    0.0000 C   0  0  0  0  0  0  0  0  0  0  0  0
    7.6652   -0.2416    0.0000 C   0  0  0  0  0  0  0  0  0  0  0  0
   10.1252   -0.2416    0.0000 C   0  0  0  0  0  0  0  0  0  0  0  0
   10.8752   -1.5406    0.0000 C   0  0  0  0  0  0  0  0  0  0  0  0
   12.3752   -1.5406    0.0000 O   0  0  0  0  0  0  0  0  0  0  0  0
   13.1252   -2.8397    0.0000 C   0  0  0  0  0  0  0  0  0  0  0  0
   14.6252   -2.8397    0.0000 C   0  0  0  0  0  0  0  0  0  0  0  0
   15.3752   -4.1387    0.0000 C   0  0  0  0  0  0  0  0  0  0  0  0
   16.8752   -4.1387    0.0000 C   0  0  0  0  0  0  0  0  0  0  0  0
   12.3752   -4.1387    0.0000 O   0  0  0  0  0  0  0  0  0  0  0  0
  1  2  1  0
  2  3  1  0
  3  4  1  0
  4  5  1  0
  5  6  1  0
  6  7  1  0
  7  8  1  0
  8  9  1  0
  9 10  1  0
 10 11  1  0
 11 12  1  0
 12 13  1  0
 10 14  2  0
M  END
>  <cdk:Title>  (290) 
Octyl butanoate

>  <1A2>  (290) 
N

>  <2A6>  (290) 
N

>  <2B6>  (290) 
N

>  <2C8>  (290) 
N

>  <2C9>  (290) 
N

>  <2C19>  (290) 
N

>  <2D6>  (290) 
N

>  <2E1>  (290) 
N

>  <3A4>  (290) 
N

>  <Citation>  (290) 
Nucleic Acids Res. 2018. Jan 4;46(D1):D608-17. PMID:29140435
Nucleic Acids Res. 2018 Jan 4;46(D1):D1074-D1082. PMID:29126136
Nucleic Acids Res., 45:D380-388 (2017).  PMID:27924025
Nucleic Acids Res. 2016 Jan 4;44(D1):D1202-13. PMID:26400175

>  <ROMol>  (290) 
<rdkit.Chem.rdchem.Mol object at 0x7c2905d03ca0>

>  <Drug_like>  (290) 
True

$$$$
N-Formyl-L-methionine
     RDKit          2D

 11 10  0  0  0  0  0  0  0  0999 V2000
    0.9430   -1.0062    0.0000 C   0  0  0  0  0  0  0  0  0  0  0  0
    2.4430   -1.0062    0.0000 S   0  0  0  0  0  0  0  0  0  0  0  0
    3.1930    0.2928    0.0000 C   0  0  0  0  0  0  0  0  0  0  0  0
    4.6930    0.2928    0.0000 C   0  0  0  0  0  0  0  0  0  0  0  0
    5.4430   -1.0062    0.0000 C   0  0  0  0  0  0  0  0  0  0  0  0
    6.9430   -1.0062    0.0000 C   0  0  0  0  0  0  0  0  0  0  0  0
    7.6930    0.2928    0.0000 O   0  0  0  0  0  0  0  0  0  0  0  0
    7.6930   -2.3053    0.0000 O   0  0  0  0  0  0  0  0  0  0  0  0
    5.7035   -2.4834    0.0000 N   0  0  0  0  0  0  0  0  0  0  0  0
    4.5544   -3.4476    0.0000 C   0  0  0  0  0  0  0  0  0  0  0  0
    4.8149   -4.9248    0.0000 O   0  0  0  0  0  0  0  0  0  0  0  0
  1  2  1  0
  2  3  1  0
  3  4  1  0
  4  5  1  0
  5  6  1  0
  6  7  1  0
  6  8  2  0
  5  9  1  0
  9 10  1  0
 10 11  2  0
M  END
>  <cdk:Title>  (291) 
N-Formyl-L-methionine

>  <1A2>  (291) 
N

>  <2A6>  (291) 
N

>  <2B6>  (291) 
N

>  <2C8>  (291) 
N

>  <2C9>  (291) 
N

>  <2C19>  (291) 
N

>  <2D6>  (291) 
N

>  <2E1>  (291) 
N

>  <3A4>  (291) 
N

>  <Citation>  (291) 
Nucleic Acids Res. 2018. Jan 4;46(D1):D608-17. PMID:29140435
Nucleic Acids Res. 2018 Jan 4;46(D1):D1074-D1082. PMID:29126136
Nucleic Acids Res., 45:D380-388 (2017).  PMID:27924025
Nucleic Acids Res. 2016 Jan 4;44(D1):D1202-13. PMID:26400175

>  <ROMol>  (291) 
<rdkit.Chem.rdchem.Mol object at 0x7c2905d03d10>

>  <Drug_like>  (291) 
True

$$$$
Alpha-Ribazole-5'-phosphate
     RDKit          2D

 24 26  0  0  0  0  0  0  0  0999 V2000
    2.2000    1.2093    0.0000 N   0  0  0  0  0  0  0  0  0  0  0  0
    3.0835   -0.0055    0.0000 C   0  0  0  0  0  0  0  0  0  0  0  0
    2.1989   -1.2169    0.0000 C   0  0  0  0  0  0  0  0  0  0  0  0
    2.8064   -2.5892    0.0000 C   0  0  0  0  0  0  0  0  0  0  0  0
    4.2986   -2.7503    0.0000 C   0  0  0  0  0  0  0  0  0  0  0  0
    5.1832   -1.5389    0.0000 C   0  0  0  0  0  0  0  0  0  0  0  0
    4.5757   -0.1665    0.0000 C   0  0  0  0  0  0  0  0  0  0  0  0
    6.6746   -1.6991    0.0000 C   0  0  0  0  0  0  0  0  0  0  0  0
    4.9051   -4.1222    0.0000 C   0  0  0  0  0  0  0  0  0  0  0  0
    0.7728   -0.7450    0.0000 N   0  0  0  0  0  0  0  0  0  0  0  0
    0.7757    0.7512    0.0000 C   0  0  0  0  0  0  0  0  0  0  0  0
    2.6653    2.6354    0.0000 C   0  0  0  0  0  0  0  0  0  0  0  0
    3.4161    3.9295    0.0000 O   0  0  0  0  0  0  0  0  0  0  0  0
    2.4163    5.0425    0.0000 C   0  0  0  0  0  0  0  0  0  0  0  0
    3.6313    5.9222    0.0000 C   0  0  0  0  0  0  0  0  0  0  0  0
    3.4769    7.4142    0.0000 O   0  0  0  0  0  0  0  0  0  0  0  0
    4.6919    8.2939    0.0000 P   0  0  0  0  0  0  0  0  0  0  0  0
    6.0612    7.6816    0.0000 O   0  0  0  0  0  0  0  0  0  0  0  0
    3.6146    9.3377    0.0000 O   0  0  0  0  0  0  0  0  0  0  0  0
    5.5327    9.5361    0.0000 O   0  0  0  0  0  0  0  0  0  0  0  0
    1.0512    4.4389    0.0000 C   0  0  0  0  0  0  0  0  0  0  0  0
    1.2055    2.9468    0.0000 C   0  0  0  0  0  0  0  0  0  0  0  0
   -0.7745    2.9495    0.0000 O   0  0  0  0  0  0  0  0  0  0  0  0
    0.5908    5.8665    0.0000 O   0  0  0  0  0  0  0  0  0  0  0  0
  1  2  1  0
  2  3  1  0
  3  4  2  0
  4  5  1  0
  5  6  2  0
  6  7  1  0
  2  7  2  0
  6  8  1  0
  5  9  1  0
  3 10  1  0
 10 11  2  0
  1 11  1  0
  1 12  1  0
 12 13  1  0
 13 14  1  0
 14 15  1  0
 15 16  1  0
 16 17  1  0
 17 18  1  0
 17 19  1  0
 17 20  2  0
 14 21  1  0
 21 22  1  0
 12 22  1  0
 22 23  1  0
 21 24  1  0
M  END
>  <cdk:Title>  (292) 
Alpha-Ribazole-5'-phosphate

>  <1A2>  (292) 
N

>  <2A6>  (292) 
N

>  <2B6>  (292) 
N

>  <2C8>  (292) 
N

>  <2C9>  (292) 
N

>  <2C19>  (292) 
N

>  <2D6>  (292) 
N

>  <2E1>  (292) 
N

>  <3A4>  (292) 
N

>  <Citation>  (292) 
Nucleic Acids Res. 2018. Jan 4;46(D1):D608-17. PMID:29140435
Nucleic Acids Res. 2018 Jan 4;46(D1):D1074-D1082. PMID:29126136
Nucleic Acids Res., 45:D380-388 (2017).  PMID:27924025
Nucleic Acids Res. 2016 Jan 4;44(D1):D1202-13. PMID:26400175

>  <ROMol>  (292) 
<rdkit.Chem.rdchem.Mol object at 0x7c2905d03d80>

>  <Drug_like>  (292) 
True

$$$$
(2S)-2-Azaniumyloctanoate
     RDKit          2D

 11 10  0  0  0  0  0  0  0  0999 V2000
   10.3772    0.7213    0.0000 C   0  0  0  0  0  0  0  0  0  0  0  0
   11.1272   -0.5777    0.0000 O   0  0  0  0  0  0  0  0  0  0  0  0
   11.1272    2.0204    0.0000 O   0  0  0  0  0  0  0  0  0  0  0  0
    8.8772    0.7213    0.0000 C   0  0  0  0  0  0  0  0  0  0  0  0
    7.8872   -0.9934    0.0000 C   0  0  0  0  0  0  0  0  0  0  0  0
    5.9072   -0.9934    0.0000 C   0  0  0  0  0  0  0  0  0  0  0  0
    4.9172   -2.7081    0.0000 C   0  0  0  0  0  0  0  0  0  0  0  0
    2.9372   -2.7081    0.0000 C   0  0  0  0  0  0  0  0  0  0  0  0
    2.1872   -4.0072    0.0000 C   0  0  0  0  0  0  0  0  0  0  0  0
    0.6872   -4.0072    0.0000 C   0  0  0  0  0  0  0  0  0  0  0  0
    9.1377    2.1986    0.0000 N   0  0  0  0  0  0  0  0  0  0  0  0
  1  2  2  0
  1  3  1  0
  1  4  1  0
  4  5  1  0
  5  6  1  0
  6  7  1  0
  7  8  1  0
  8  9  1  0
  9 10  1  0
  4 11  1  0
M  END
>  <cdk:Title>  (293) 
(2S)-2-Azaniumyloctanoate

>  <1A2>  (293) 
N

>  <2A6>  (293) 
N

>  <2B6>  (293) 
N

>  <2C8>  (293) 
N

>  <2C9>  (293) 
N

>  <2C19>  (293) 
N

>  <2D6>  (293) 
N

>  <2E1>  (293) 
N

>  <3A4>  (293) 
N

>  <Citation>  (293) 
Nucleic Acids Res. 2018. Jan 4;46(D1):D608-17. PMID:29140435
Nucleic Acids Res. 2018 Jan 4;46(D1):D1074-D1082. PMID:29126136
Nucleic Acids Res., 45:D380-388 (2017).  PMID:27924025
Nucleic Acids Res. 2016 Jan 4;44(D1):D1202-13. PMID:26400175

>  <ROMol>  (293) 
<rdkit.Chem.rdchem.Mol object at 0x7c2905d03df0>

>  <Drug_like>  (293) 
True

$$$$
Nivalenol
     RDKit          2D

 22 25  0  0  0  0  0  0  0  0999 V2000
    3.3413    3.3465    0.0000 C   0  0  0  0  0  0  0  0  0  0  0  0
    2.4513    1.8965    0.0000 C   0  0  0  0  0  0  0  0  0  0  0  0
    3.9513    1.8965    0.0000 C   0  0  0  0  0  0  0  0  0  0  0  0
    4.7713    2.9465    0.0000 C   0  0  0  0  0  0  0  0  0  0  0  0
    4.4113    4.3965    0.0000 O   0  0  0  0  0  0  0  0  0  0  0  0
    3.2013    4.9465    0.0000 C   0  0  0  0  0  0  0  0  0  0  0  0
    2.0013    4.3965    0.0000 C   0  0  0  0  0  0  0  0  0  0  0  0
    1.6413    2.9465    0.0000 C   0  0  0  0  0  0  0  0  0  0  0  0
   -0.5555    4.0536    0.0000 O   0  0  0  0  0  0  0  0  0  0  0  0
    1.6954    5.8650    0.0000 O   0  0  0  0  0  0  0  0  0  0  0  0
    6.2727    2.8312    0.0000 C   0  0  0  0  0  0  0  0  0  0  0  0
    6.8726    1.4283    0.0000 C   0  0  0  0  0  0  0  0  0  0  0  0
    5.9335    0.2258    0.0000 C   0  0  0  0  0  0  0  0  0  0  0  0
    4.4270    0.4679    0.0000 C   0  0  0  0  0  0  0  0  0  0  0  0
    2.4727    0.1502    0.0000 O   0  0  0  0  0  0  0  0  0  0  0  0
    6.4818   -1.1704    0.0000 O   0  0  0  0  0  0  0  0  0  0  0  0
    8.3601    1.2347    0.0000 C   0  0  0  0  0  0  0  0  0  0  0  0
    3.0741    0.6798    0.0000 C   0  0  0  0  0  0  0  0  0  0  0  0
    1.5817    0.8312    0.0000 O   0  0  0  0  0  0  0  0  0  0  0  0
    0.0089    0.2600    0.0000 C   0  0  0  0  0  0  0  0  0  0  0  0
    1.8777    3.0182    0.0000 C   0  0  0  0  0  0  0  0  0  0  0  0
    2.3251    4.4499    0.0000 O   0  0  0  0  0  0  0  0  0  0  0  0
  1  2  1  0
  2  3  1  0
  3  4  1  0
  4  5  1  0
  5  6  1  0
  1  6  1  0
  6  7  1  0
  7  8  1  0
  2  8  1  0
  8  9  1  0
  7 10  1  0
  4 11  1  0
 11 12  2  0
 12 13  1  0
 13 14  1  0
  3 14  1  0
 14 15  1  0
 13 16  2  0
 12 17  1  0
  3 18  1  1
 18 19  1  0
  2 20  1  6
  1 21  1  1
 21 22  1  0
  1 22  1  0
M  END
>  <cdk:Title>  (294) 
Nivalenol

>  <1A2>  (294) 
N

>  <2A6>  (294) 
N

>  <2B6>  (294) 
N

>  <2C8>  (294) 
N

>  <2C9>  (294) 
N

>  <2C19>  (294) 
N

>  <2D6>  (294) 
N

>  <2E1>  (294) 
N

>  <3A4>  (294) 
N

>  <Citation>  (294) 
Nucleic Acids Res. 2018. Jan 4;46(D1):D608-17. PMID:29140435
Nucleic Acids Res. 2018 Jan 4;46(D1):D1074-D1082. PMID:29126136
Nucleic Acids Res., 45:D380-388 (2017).  PMID:27924025
Nucleic Acids Res. 2016 Jan 4;44(D1):D1202-13. PMID:26400175

>  <ROMol>  (294) 
<rdkit.Chem.rdchem.Mol object at 0x7c2905d03e60>

>  <Drug_like>  (294) 
True

$$$$
3-Methyluric acid
     RDKit          2D

 13 14  0  0  0  0  0  0  0  0999 V2000
   -1.0100    3.0000    0.0000 O   0  0  0  0  0  0  0  0  0  0  0  0
   -1.0100    1.5000    0.0000 C   0  0  0  0  0  0  0  0  0  0  0  0
   -2.3100    0.7500    0.0000 N   0  0  0  0  0  0  0  0  0  0  0  0
   -2.3100   -0.7500    0.0000 C   0  0  0  0  0  0  0  0  0  0  0  0
   -3.6089   -1.5002    0.0000 O   0  0  0  0  0  0  0  0  0  0  0  0
   -1.0100   -1.5000    0.0000 N   0  0  0  0  0  0  0  0  0  0  0  0
    0.2900   -0.7500    0.0000 C   0  0  0  0  0  0  0  0  0  0  0  0
    1.7200   -1.2100    0.0000 N   0  0  0  0  0  0  0  0  0  0  0  0
    2.6000    0.0000    0.0000 C   0  0  0  0  0  0  0  0  0  0  0  0
    4.1000    0.0000    0.0000 O   0  0  0  0  0  0  0  0  0  0  0  0
    1.7200    1.2100    0.0000 N   0  0  0  0  0  0  0  0  0  0  0  0
    0.2900    0.7500    0.0000 C   0  0  0  0  0  0  0  0  0  0  0  0
   -1.0100   -3.0000    0.0000 C   0  0  0  0  0  0  0  0  0  0  0  0
  1  2  2  0
  2  3  1  0
  3  4  1  0
  4  5  2  0
  4  6  1  0
  6  7  1  0
  7  8  1  0
  8  9  1  0
  9 10  2  0
  9 11  1  0
 11 12  1  0
  7 12  2  0
  2 12  1  0
  6 13  1  0
M  END
>  <cdk:Title>  (295) 
3-Methyluric acid

>  <1A2>  (295) 
N

>  <2A6>  (295) 
N

>  <2B6>  (295) 
N

>  <2C8>  (295) 
N

>  <2C9>  (295) 
N

>  <2C19>  (295) 
N

>  <2D6>  (295) 
N

>  <2E1>  (295) 
N

>  <3A4>  (295) 
N

>  <Citation>  (295) 
Nucleic Acids Res. 2018. Jan 4;46(D1):D608-17. PMID:29140435
Nucleic Acids Res. 2018 Jan 4;46(D1):D1074-D1082. PMID:29126136
Nucleic Acids Res., 45:D380-388 (2017).  PMID:27924025
Nucleic Acids Res. 2016 Jan 4;44(D1):D1202-13. PMID:26400175

>  <ROMol>  (295) 
<rdkit.Chem.rdchem.Mol object at 0x7c2905d03ed0>

>  <Drug_like>  (295) 
True

$$$$
(e)-Casimiroedine
     RDKit          2D

 30 32  0  0  0  0  0  0  0  0999 V2000
   -2.5156    5.6466    0.0000 C   0  0  0  0  0  0  0  0  0  0  0  0
   -1.7656    6.9456    0.0000 N   0  0  0  0  0  0  0  0  0  0  0  0
   -2.5156    8.2447    0.0000 C   0  0  0  0  0  0  0  0  0  0  0  0
   -4.0156    8.2447    0.0000 C   0  0  0  0  0  0  0  0  0  0  0  0
   -4.7656    9.5437    0.0000 C   0  0  0  0  0  0  0  0  0  0  0  0
   -6.2593    9.7029    0.0000 C   0  0  0  0  0  0  0  0  0  0  0  0
   -6.5732   11.1658    0.0000 N   0  0  0  0  0  0  0  0  0  0  0  0
   -7.9456   11.7712    0.0000 C   0  0  0  0  0  0  0  0  0  0  0  0
   -9.0284   12.8092    0.0000 C   0  0  0  0  0  0  0  0  0  0  0  0
  -10.4695   12.3898    0.0000 C   0  0  0  0  0  0  0  0  0  0  0  0
  -10.8277   10.9324    0.0000 C   0  0  0  0  0  0  0  0  0  0  0  0
   -9.7449    9.8943    0.0000 C   0  0  0  0  0  0  0  0  0  0  0  0
  -11.3424    8.7245    0.0000 C   0  0  0  0  0  0  0  0  0  0  0  0
  -12.7150    9.3295    0.0000 O   0  0  0  0  0  0  0  0  0  0  0  0
   -8.3039   10.3137    0.0000 O   0  0  0  0  0  0  0  0  0  0  0  0
  -12.2001   11.5378    0.0000 O   0  0  0  0  0  0  0  0  0  0  0  0
  -10.6318   13.8810    0.0000 O   0  0  0  0  0  0  0  0  0  0  0  0
   -7.8182   13.6955    0.0000 O   0  0  0  0  0  0  0  0  0  0  0  0
   -5.2742   11.9243    0.0000 C   0  0  0  0  0  0  0  0  0  0  0  0
   -4.1575   10.9149    0.0000 N   0  0  0  0  0  0  0  0  0  0  0  0
   -0.2656    6.9456    0.0000 C   0  0  0  0  0  0  0  0  0  0  0  0
    0.4844    5.6466    0.0000 C   0  0  0  0  0  0  0  0  0  0  0  0
    1.9844    5.6466    0.0000 C   0  0  0  0  0  0  0  0  0  0  0  0
    2.7344    4.3475    0.0000 C   0  0  0  0  0  0  0  0  0  0  0  0
    4.2352    4.3480    0.0000 C   0  0  0  0  0  0  0  0  0  0  0  0
    4.9852    3.0490    0.0000 C   0  0  0  0  0  0  0  0  0  0  0  0
    4.2344    1.7495    0.0000 C   0  0  0  0  0  0  0  0  0  0  0  0
    2.7335    1.7490    0.0000 C   0  0  0  0  0  0  0  0  0  0  0  0
    1.9835    3.0480    0.0000 C   0  0  0  0  0  0  0  0  0  0  0  0
    0.4844    8.2447    0.0000 O   0  0  0  0  0  0  0  0  0  0  0  0
  1  2  1  0
  2  3  1  0
  3  4  1  0
  4  5  1  0
  5  6  2  0
  6  7  1  0
  7  8  1  0
  8  9  1  0
  9 10  1  0
 10 11  1  0
 11 12  1  0
 12 13  1  0
 13 14  1  0
 12 15  1  0
  8 15  1  0
 11 16  1  0
 10 17  1  0
  9 18  1  0
  7 19  1  0
 19 20  2  0
  5 20  1  0
  2 21  1  0
 21 22  1  0
 22 23  2  0
 23 24  1  0
 24 25  2  0
 25 26  1  0
 26 27  2  0
 27 28  1  0
 28 29  2  0
 24 29  1  0
 21 30  2  0
M  END
>  <cdk:Title>  (296) 
(e)-Casimiroedine

>  <1A2>  (296) 
N

>  <2A6>  (296) 
N

>  <2B6>  (296) 
N

>  <2C8>  (296) 
N

>  <2C9>  (296) 
N

>  <2C19>  (296) 
N

>  <2D6>  (296) 
N

>  <2E1>  (296) 
N

>  <3A4>  (296) 
N

>  <Citation>  (296) 
Nucleic Acids Res. 2018. Jan 4;46(D1):D608-17. PMID:29140435
Nucleic Acids Res. 2018 Jan 4;46(D1):D1074-D1082. PMID:29126136
Nucleic Acids Res., 45:D380-388 (2017).  PMID:27924025
Nucleic Acids Res. 2016 Jan 4;44(D1):D1202-13. PMID:26400175

>  <ROMol>  (296) 
<rdkit.Chem.rdchem.Mol object at 0x7c2905d03f40>

>  <Drug_like>  (296) 
True

$$$$
(e_e)-Lansamide I
     RDKit          2D

 20 21  0  0  0  0  0  0  0  0999 V2000
   -0.7442    6.7584    0.0000 C   0  0  0  0  0  0  0  0  0  0  0  0
   -1.4942    5.4593    0.0000 N   0  0  0  0  0  0  0  0  0  0  0  0
   -0.5042    3.7446    0.0000 C   0  0  0  0  0  0  0  0  0  0  0  0
    2.3911    3.2341    0.0000 C   0  0  0  0  0  0  0  0  0  0  0  0
    3.6639    4.7508    0.0000 C   0  0  0  0  0  0  0  0  0  0  0  0
    5.1418    4.4897    0.0000 C   0  0  0  0  0  0  0  0  0  0  0  0
    6.1060    5.6388    0.0000 C   0  0  0  0  0  0  0  0  0  0  0  0
    5.5922    7.0490    0.0000 C   0  0  0  0  0  0  0  0  0  0  0  0
    4.1143    7.3101    0.0000 C   0  0  0  0  0  0  0  0  0  0  0  0
    3.1501    6.1610    0.0000 C   0  0  0  0  0  0  0  0  0  0  0  0
   -2.9942    5.4593    0.0000 C   0  0  0  0  0  0  0  0  0  0  0  0
   -3.7442    6.7584    0.0000 C   0  0  0  0  0  0  0  0  0  0  0  0
   -5.2442    6.7584    0.0000 C   0  0  0  0  0  0  0  0  0  0  0  0
   -5.9942    8.0574    0.0000 C   0  0  0  0  0  0  0  0  0  0  0  0
   -7.4950    8.0569    0.0000 C   0  0  0  0  0  0  0  0  0  0  0  0
   -8.2450    9.3560    0.0000 C   0  0  0  0  0  0  0  0  0  0  0  0
   -7.4942   10.6555    0.0000 C   0  0  0  0  0  0  0  0  0  0  0  0
   -5.9934   10.6560    0.0000 C   0  0  0  0  0  0  0  0  0  0  0  0
   -5.2434    9.3569    0.0000 C   0  0  0  0  0  0  0  0  0  0  0  0
   -3.7442    4.1603    0.0000 O   0  0  0  0  0  0  0  0  0  0  0  0
  1  2  1  0
  2  3  1  0
  3  4  2  0
  4  5  1  0
  5  6  2  0
  6  7  1  0
  7  8  2  0
  8  9  1  0
  9 10  2  0
  5 10  1  0
  2 11  1  0
 11 12  1  0
 12 13  2  0
 13 14  1  0
 14 15  2  0
 15 16  1  0
 16 17  2  0
 17 18  1  0
 18 19  2  0
 14 19  1  0
 11 20  2  0
M  END
>  <cdk:Title>  (297) 
(e_e)-Lansamide I

>  <1A2>  (297) 
N

>  <2A6>  (297) 
N

>  <2B6>  (297) 
N

>  <2C8>  (297) 
N

>  <2C9>  (297) 
N

>  <2C19>  (297) 
N

>  <2D6>  (297) 
N

>  <2E1>  (297) 
N

>  <3A4>  (297) 
N

>  <Citation>  (297) 
Nucleic Acids Res. 2018. Jan 4;46(D1):D608-17. PMID:29140435
Nucleic Acids Res. 2018 Jan 4;46(D1):D1074-D1082. PMID:29126136
Nucleic Acids Res., 45:D380-388 (2017).  PMID:27924025
Nucleic Acids Res. 2016 Jan 4;44(D1):D1202-13. PMID:26400175

>  <ROMol>  (297) 
<rdkit.Chem.rdchem.Mol object at 0x7c2905d30040>

>  <Drug_like>  (297) 
True

$$$$
N(3)-Oxalyl-L-2_3-diaminopropionic acid
     RDKit          2D

 12 11  0  0  0  0  0  0  0  0999 V2000
    9.0933   -3.3086    0.0000 O   0  0  0  0  0  0  0  0  0  0  0  0
    9.0933   -1.8086    0.0000 C   0  0  0  0  0  0  0  0  0  0  0  0
   10.3923   -1.0586    0.0000 O   0  0  0  0  0  0  0  0  0  0  0  0
    7.7942   -1.0586    0.0000 C   0  0  0  0  0  0  0  0  0  0  0  0
    8.7584    0.0905    0.0000 N   0  0  0  0  0  0  0  0  0  0  0  0
    6.4952   -1.8086    0.0000 C   0  0  0  0  0  0  0  0  0  0  0  0
    5.1962   -1.0586    0.0000 N   0  0  0  0  0  0  0  0  0  0  0  0
    3.8971   -1.8086    0.0000 C   0  0  0  0  0  0  0  0  0  0  0  0
    2.5981   -1.0586    0.0000 C   0  0  0  0  0  0  0  0  0  0  0  0
    2.5981    0.4414    0.0000 O   0  0  0  0  0  0  0  0  0  0  0  0
    1.2990   -1.8086    0.0000 O   0  0  0  0  0  0  0  0  0  0  0  0
    3.8971   -3.3086    0.0000 O   0  0  0  0  0  0  0  0  0  0  0  0
  1  2  2  0
  2  3  1  0
  2  4  1  0
  4  5  1  0
  4  6  1  0
  6  7  1  0
  7  8  1  0
  8  9  1  0
  9 10  2  0
  9 11  1  0
  8 12  2  0
M  END
>  <cdk:Title>  (298) 
N(3)-Oxalyl-L-2_3-diaminopropionic acid

>  <1A2>  (298) 
N

>  <2A6>  (298) 
N

>  <2B6>  (298) 
N

>  <2C8>  (298) 
N

>  <2C9>  (298) 
N

>  <2C19>  (298) 
N

>  <2D6>  (298) 
N

>  <2E1>  (298) 
N

>  <3A4>  (298) 
N

>  <Citation>  (298) 
Nucleic Acids Res. 2018. Jan 4;46(D1):D608-17. PMID:29140435
Nucleic Acids Res. 2018 Jan 4;46(D1):D1074-D1082. PMID:29126136
Nucleic Acids Res., 45:D380-388 (2017).  PMID:27924025
Nucleic Acids Res. 2016 Jan 4;44(D1):D1202-13. PMID:26400175

>  <ROMol>  (298) 
<rdkit.Chem.rdchem.Mol object at 0x7c2905d300b0>

>  <Drug_like>  (298) 
True

$$$$
Dehydroascorbic acid
     RDKit          2D

 12 12  0  0  0  0  0  0  0  0999 V2000
   -0.5500    1.2900    0.0000 C   0  0  0  0  0  0  0  0  0  0  0  0
   -2.0125    1.6232    0.0000 C   0  0  0  0  0  0  0  0  0  0  0  0
   -2.4553    3.0563    0.0000 C   0  0  0  0  0  0  0  0  0  0  0  0
   -3.9178    3.3895    0.0000 O   0  0  0  0  0  0  0  0  0  0  0  0
   -3.5008    1.4360    0.0000 O   0  0  0  0  0  0  0  0  0  0  0  0
   -1.0300   -0.1300    0.0000 C   0  0  0  0  0  0  0  0  0  0  0  0
   -2.4636   -0.5713    0.0000 O   0  0  0  0  0  0  0  0  0  0  0  0
    0.1600   -1.0300    0.0000 C   0  0  0  0  0  0  0  0  0  0  0  0
    0.1320   -2.5297    0.0000 O   0  0  0  0  0  0  0  0  0  0  0  0
    1.3900   -0.1700    0.0000 C   0  0  0  0  0  0  0  0  0  0  0  0
    2.8085   -0.6576    0.0000 O   0  0  0  0  0  0  0  0  0  0  0  0
    0.9500    1.2600    0.0000 O   0  0  0  0  0  0  0  0  0  0  0  0
  1  2  1  0
  2  3  1  0
  3  4  1  0
  2  5  1  0
  1  6  1  0
  6  7  2  0
  6  8  1  0
  8  9  2  0
  8 10  1  0
 10 11  2  0
 10 12  1  0
  1 12  1  0
M  END
>  <cdk:Title>  (299) 
Dehydroascorbic acid

>  <1A2>  (299) 
N

>  <2A6>  (299) 
N

>  <2B6>  (299) 
N

>  <2C8>  (299) 
N

>  <2C9>  (299) 
N

>  <2C19>  (299) 
N

>  <2D6>  (299) 
N

>  <2E1>  (299) 
N

>  <3A4>  (299) 
N

>  <Citation>  (299) 
Nucleic Acids Res. 2018. Jan 4;46(D1):D608-17. PMID:29140435
Nucleic Acids Res. 2018 Jan 4;46(D1):D1074-D1082. PMID:29126136
Nucleic Acids Res., 45:D380-388 (2017).  PMID:27924025
Nucleic Acids Res. 2016 Jan 4;44(D1):D1202-13. PMID:26400175

>  <ROMol>  (299) 
<rdkit.Chem.rdchem.Mol object at 0x7c2905d30190>

>  <Drug_like>  (299) 
True

$$$$
Glycerol-2-phosphate
     RDKit          2D

 10  9  0  0  0  0  0  0  0  0999 V2000
    2.6710    1.6931    0.0000 O   0  0  0  0  0  0  0  0  0  0  0  0
    4.1483    1.9536    0.0000 C   0  0  0  0  0  0  0  0  0  0  0  0
    5.1124    0.8045    0.0000 C   0  0  0  0  0  0  0  0  0  0  0  0
    3.8134    0.0545    0.0000 C   0  0  0  0  0  0  0  0  0  0  0  0
    2.5144    0.8045    0.0000 O   0  0  0  0  0  0  0  0  0  0  0  0
    6.4115    0.0545    0.0000 O   0  0  0  0  0  0  0  0  0  0  0  0
    7.7105    0.8045    0.0000 P   0  0  0  0  0  0  0  0  0  0  0  0
    7.7105    2.3045    0.0000 O   0  0  0  0  0  0  0  0  0  0  0  0
    8.2235   -0.6050    0.0000 O   0  0  0  0  0  0  0  0  0  0  0  0
    9.1877    1.0650    0.0000 O   0  0  0  0  0  0  0  0  0  0  0  0
  1  2  1  0
  2  3  1  0
  3  4  1  0
  4  5  1  0
  3  6  1  0
  6  7  1  0
  7  8  1  0
  7  9  1  0
  7 10  2  0
M  END
>  <cdk:Title>  (300) 
Glycerol-2-phosphate

>  <1A2>  (300) 
N

>  <2A6>  (300) 
N

>  <2B6>  (300) 
N

>  <2C8>  (300) 
N

>  <2C9>  (300) 
N

>  <2C19>  (300) 
N

>  <2D6>  (300) 
N

>  <2E1>  (300) 
N

>  <3A4>  (300) 
N

>  <Citation>  (300) 
Nucleic Acids Res. 2018. Jan 4;46(D1):D608-17. PMID:29140435
Nucleic Acids Res. 2018 Jan 4;46(D1):D1074-D1082. PMID:29126136
Nucleic Acids Res., 45:D380-388 (2017).  PMID:27924025
Nucleic Acids Res. 2016 Jan 4;44(D1):D1202-13. PMID:26400175

>  <ROMol>  (300) 
<rdkit.Chem.rdchem.Mol object at 0x7c2905d30270>

>  <Drug_like>  (300) 
True

$$$$
(2R)-2-{[(2R)-2-amino-1-hydroxy-3-phenylpropylidene]amino}-3-(C-hydroxycarbonimi
     RDKit          2D

 20 20  0  0  0  0  0  0  0  0999 V2000
   -0.8509    3.4209    0.0000 N   0  0  0  0  0  0  0  0  0  0  0  0
   -0.1009    4.7199    0.0000 C   0  0  0  0  0  0  0  0  0  0  0  0
   -0.8509    6.0190    0.0000 O   0  0  0  0  0  0  0  0  0  0  0  0
    1.3991    4.7199    0.0000 C   0  0  0  0  0  0  0  0  0  0  0  0
    1.1386    6.1972    0.0000 N   0  0  0  0  0  0  0  0  0  0  0  0
    2.1491    3.4209    0.0000 C   0  0  0  0  0  0  0  0  0  0  0  0
    3.6491    3.4209    0.0000 C   0  0  0  0  0  0  0  0  0  0  0  0
    4.3991    2.1209    0.0000 C   0  0  0  0  0  0  0  0  0  0  0  0
    5.8991    2.1209    0.0000 C   0  0  0  0  0  0  0  0  0  0  0  0
    6.6491    3.4209    0.0000 C   0  0  0  0  0  0  0  0  0  0  0  0
    5.8991    4.7209    0.0000 C   0  0  0  0  0  0  0  0  0  0  0  0
    4.3991    4.7209    0.0000 C   0  0  0  0  0  0  0  0  0  0  0  0
   -2.3509    3.4209    0.0000 C   0  0  0  0  0  0  0  0  0  0  0  0
   -3.1009    4.7199    0.0000 C   0  0  0  0  0  0  0  0  0  0  0  0
   -4.6009    4.7199    0.0000 C   0  0  0  0  0  0  0  0  0  0  0  0
   -5.3509    6.0190    0.0000 N   0  0  0  0  0  0  0  0  0  0  0  0
   -5.3509    3.4209    0.0000 O   0  0  0  0  0  0  0  0  0  0  0  0
   -2.0904    1.9437    0.0000 C   0  0  0  0  0  0  0  0  0  0  0  0
   -3.2395    0.9795    0.0000 O   0  0  0  0  0  0  0  0  0  0  0  0
   -0.6809    1.4307    0.0000 O   0  0  0  0  0  0  0  0  0  0  0  0
  1  2  1  0
  2  3  2  0
  2  4  1  0
  4  5  1  0
  4  6  1  0
  6  7  1  0
  7  8  2  0
  8  9  1  0
  9 10  2  0
 10 11  1  0
 11 12  2  0
  7 12  1  0
  1 13  1  0
 13 14  1  0
 14 15  1  0
 15 16  1  0
 15 17  2  0
 13 18  1  0
 18 19  1  0
 18 20  2  0
M  END
>  <cdk:Title>  (301) 
(2R)-2-{[(2R)-2-amino-1-hydroxy-3-phenylpropylidene]amino}-3-(C-hydroxycarbonimidoyl)propanoic acid

>  <1A2>  (301) 
N

>  <2A6>  (301) 
N

>  <2B6>  (301) 
N

>  <2C8>  (301) 
N

>  <2C9>  (301) 
N

>  <2C19>  (301) 
N

>  <2D6>  (301) 
N

>  <2E1>  (301) 
N

>  <3A4>  (301) 
N

>  <Citation>  (301) 
Nucleic Acids Res. 2018. Jan 4;46(D1):D608-17. PMID:29140435
Nucleic Acids Res. 2018 Jan 4;46(D1):D1074-D1082. PMID:29126136
Nucleic Acids Res., 45:D380-388 (2017).  PMID:27924025
Nucleic Acids Res. 2016 Jan 4;44(D1):D1202-13. PMID:26400175

>  <ROMol>  (301) 
<rdkit.Chem.rdchem.Mol object at 0x7c2905d302e0>

>  <Drug_like>  (301) 
True

$$$$
Butanoic acid (alphas)-alpha-methylphenethyl ester
     RDKit          2D

 15 15  0  0  0  0  0  0  0  0999 V2000
   -4.6303    8.2495    0.0000 C   0  0  0  0  0  0  0  0  0  0  0  0
   -3.3313    7.4995    0.0000 C   0  0  0  0  0  0  0  0  0  0  0  0
   -3.3313    5.9995    0.0000 C   0  0  0  0  0  0  0  0  0  0  0  0
   -2.0323    5.2495    0.0000 C   0  0  0  0  0  0  0  0  0  0  0  0
   -0.7332    5.9995    0.0000 O   0  0  0  0  0  0  0  0  0  0  0  0
   -2.0323    3.7495    0.0000 O   0  0  0  0  0  0  0  0  0  0  0  0
   -0.7332    2.9995    0.0000 C   0  0  0  0  0  0  0  0  0  0  0  0
   -1.6974    1.8505    0.0000 C   0  0  0  0  0  0  0  0  0  0  0  0
    0.5658    3.7495    0.0000 C   0  0  0  0  0  0  0  0  0  0  0  0
    1.8648    2.9995    0.0000 C   0  0  0  0  0  0  0  0  0  0  0  0
    3.1644    3.7504    0.0000 C   0  0  0  0  0  0  0  0  0  0  0  0
    4.4634    3.0004    0.0000 C   0  0  0  0  0  0  0  0  0  0  0  0
    4.4629    1.4995    0.0000 C   0  0  0  0  0  0  0  0  0  0  0  0
    3.1634    0.7487    0.0000 C   0  0  0  0  0  0  0  0  0  0  0  0
    1.8644    1.4987    0.0000 C   0  0  0  0  0  0  0  0  0  0  0  0
  1  2  1  0
  2  3  1  0
  3  4  1  0
  4  5  2  0
  4  6  1  0
  6  7  1  0
  7  8  1  0
  7  9  1  0
  9 10  1  0
 10 11  2  0
 11 12  1  0
 12 13  2  0
 13 14  1  0
 14 15  2  0
 10 15  1  0
M  END
>  <cdk:Title>  (302) 
Butanoic acid (alphas)-alpha-methylphenethyl ester

>  <1A2>  (302) 
N

>  <2A6>  (302) 
N

>  <2B6>  (302) 
N

>  <2C8>  (302) 
N

>  <2C9>  (302) 
N

>  <2C19>  (302) 
N

>  <2D6>  (302) 
N

>  <2E1>  (302) 
N

>  <3A4>  (302) 
N

>  <Citation>  (302) 
Nucleic Acids Res. 2018. Jan 4;46(D1):D608-17. PMID:29140435
Nucleic Acids Res. 2018 Jan 4;46(D1):D1074-D1082. PMID:29126136
Nucleic Acids Res., 45:D380-388 (2017).  PMID:27924025
Nucleic Acids Res. 2016 Jan 4;44(D1):D1202-13. PMID:26400175

>  <ROMol>  (302) 
<rdkit.Chem.rdchem.Mol object at 0x7c2905d30350>

>  <Drug_like>  (302) 
True

$$$$
2-(4-Hydroxyphenyl)ethanol
     RDKit          2D

 10 10  0  0  0  0  0  0  0  0999 V2000
   -3.1275    2.5541    0.0000 O   0  0  0  0  0  0  0  0  0  0  0  0
   -1.8322    1.7977    0.0000 C   0  0  0  0  0  0  0  0  0  0  0  0
   -0.5295    2.5413    0.0000 C   0  0  0  0  0  0  0  0  0  0  0  0
    0.7659    1.7849    0.0000 C   0  0  0  0  0  0  0  0  0  0  0  0
    2.0649    2.5349    0.0000 C   0  0  0  0  0  0  0  0  0  0  0  0
    3.3494    1.8100    0.0000 C   0  0  0  0  0  0  0  0  0  0  0  0
    3.3749    0.2659    0.0000 C   0  0  0  0  0  0  0  0  0  0  0  0
    4.6801   -0.4734    0.0000 O   0  0  0  0  0  0  0  0  0  0  0  0
    2.0759   -0.4841    0.0000 C   0  0  0  0  0  0  0  0  0  0  0  0
    0.7514    0.3100    0.0000 C   0  0  0  0  0  0  0  0  0  0  0  0
  1  2  1  0
  2  3  1  0
  3  4  1  0
  4  5  2  0
  5  6  1  0
  6  7  2  0
  7  8  1  0
  7  9  1  0
  9 10  2  0
  4 10  1  0
M  END
>  <cdk:Title>  (303) 
2-(4-Hydroxyphenyl)ethanol

>  <1A2>  (303) 
N

>  <2A6>  (303) 
N

>  <2B6>  (303) 
N

>  <2C8>  (303) 
N

>  <2C9>  (303) 
N

>  <2C19>  (303) 
N

>  <2D6>  (303) 
N

>  <2E1>  (303) 
N

>  <3A4>  (303) 
N

>  <Citation>  (303) 
Nucleic Acids Res. 2018. Jan 4;46(D1):D608-17. PMID:29140435
Nucleic Acids Res. 2018 Jan 4;46(D1):D1074-D1082. PMID:29126136
Nucleic Acids Res., 45:D380-388 (2017).  PMID:27924025
Nucleic Acids Res. 2016 Jan 4;44(D1):D1202-13. PMID:26400175

>  <ROMol>  (303) 
<rdkit.Chem.rdchem.Mol object at 0x7c2905d30510>

>  <Drug_like>  (303) 
True

$$$$
Isoprothiolane
     RDKit          2D

 18 18  0  0  0  0  0  0  0  0999 V2000
   -4.0753    6.0405    0.0000 C   0  0  0  0  0  0  0  0  0  0  0  0
   -2.5981    5.7800    0.0000 C   0  0  0  0  0  0  0  0  0  0  0  0
   -2.5981    7.2800    0.0000 C   0  0  0  0  0  0  0  0  0  0  0  0
   -1.2990    5.0300    0.0000 O   0  0  0  0  0  0  0  0  0  0  0  0
   -1.2990    3.5300    0.0000 C   0  0  0  0  0  0  0  0  0  0  0  0
    0.0000    2.7800    0.0000 C   0  0  0  0  0  0  0  0  0  0  0  0
    1.2990    3.5300    0.0000 C   0  0  0  0  0  0  0  0  0  0  0  0
    1.2990    5.0300    0.0000 O   0  0  0  0  0  0  0  0  0  0  0  0
    2.5981    2.7800    0.0000 O   0  0  0  0  0  0  0  0  0  0  0  0
    3.8971    3.5300    0.0000 C   0  0  0  0  0  0  0  0  0  0  0  0
    5.1962    2.7800    0.0000 C   0  0  0  0  0  0  0  0  0  0  0  0
    4.8613    4.6791    0.0000 C   0  0  0  0  0  0  0  0  0  0  0  0
   -0.0000    1.2800    0.0000 C   0  0  0  0  0  0  0  0  0  0  0  0
    1.2100    0.3900    0.0000 S   0  0  0  0  0  0  0  0  0  0  0  0
    0.7500   -1.0300    0.0000 C   0  0  0  0  0  0  0  0  0  0  0  0
   -0.7500   -1.0300    0.0000 C   0  0  0  0  0  0  0  0  0  0  0  0
   -1.2100    0.3900    0.0000 S   0  0  0  0  0  0  0  0  0  0  0  0
   -2.5981    2.7800    0.0000 O   0  0  0  0  0  0  0  0  0  0  0  0
  1  2  1  0
  2  3  1  0
  2  4  1  0
  4  5  1  0
  5  6  1  0
  6  7  1  0
  7  8  2  0
  7  9  1  0
  9 10  1  0
 10 11  1  0
 10 12  1  0
  6 13  2  3
 13 14  1  0
 14 15  1  0
 15 16  1  0
 16 17  1  0
 13 17  1  0
  5 18  2  0
M  END
>  <cdk:Title>  (304) 
Isoprothiolane

>  <1A2>  (304) 
N

>  <2A6>  (304) 
N

>  <2B6>  (304) 
N

>  <2C8>  (304) 
N

>  <2C9>  (304) 
N

>  <2C19>  (304) 
N

>  <2D6>  (304) 
N

>  <2E1>  (304) 
N

>  <3A4>  (304) 
N

>  <Citation>  (304) 
Nucleic Acids Res. 2018. Jan 4;46(D1):D608-17. PMID:29140435
Nucleic Acids Res. 2018 Jan 4;46(D1):D1074-D1082. PMID:29126136
Nucleic Acids Res., 45:D380-388 (2017).  PMID:27924025
Nucleic Acids Res. 2016 Jan 4;44(D1):D1202-13. PMID:26400175

>  <ROMol>  (304) 
<rdkit.Chem.rdchem.Mol object at 0x7c2905d30580>

>  <Drug_like>  (304) 
True

$$$$
2-Geranyl-2'_3_4_4'-tetrahydroxydihydrochalcone
     RDKit          2D

 30 31  0  0  0  0  0  0  0  0999 V2000
    1.0669    9.3437    0.0000 C   0  0  0  0  0  0  0  0  0  0  0  0
    1.0664    7.8437    0.0000 C   0  0  0  0  0  0  0  0  0  0  0  0
    2.3652    7.0933    0.0000 C   0  0  0  0  0  0  0  0  0  0  0  0
   -0.2328    7.0941    0.0000 C   0  0  0  0  0  0  0  0  0  0  0  0
   -1.5316    7.8445    0.0000 C   0  0  0  0  0  0  0  0  0  0  0  0
   -2.8309    7.0949    0.0000 C   0  0  0  0  0  0  0  0  0  0  0  0
   -4.1297    7.8454    0.0000 C   0  0  0  0  0  0  0  0  0  0  0  0
   -6.2605    6.6160    0.0000 C   0  0  0  0  0  0  0  0  0  0  0  0
   -7.5593    7.3665    0.0000 C   0  0  0  0  0  0  0  0  0  0  0  0
   -8.8586    6.6169    0.0000 C   0  0  0  0  0  0  0  0  0  0  0  0
   -8.8593    5.1160    0.0000 C   0  0  0  0  0  0  0  0  0  0  0  0
   -7.5604    4.3658    0.0000 C   0  0  0  0  0  0  0  0  0  0  0  0
   -7.5606    2.8658    0.0000 C   0  0  0  0  0  0  0  0  0  0  0  0
   -6.2617    2.1156    0.0000 C   0  0  0  0  0  0  0  0  0  0  0  0
   -6.2620    0.6156    0.0000 C   0  0  0  0  0  0  0  0  0  0  0  0
   -4.9624   -0.1352    0.0000 C   0  0  0  0  0  0  0  0  0  0  0  0
   -4.9620   -1.6360    0.0000 C   0  0  0  0  0  0  0  0  0  0  0  0
   -6.2610   -2.3860    0.0000 C   0  0  0  0  0  0  0  0  0  0  0  0
   -7.5605   -1.6352    0.0000 C   0  0  0  0  0  0  0  0  0  0  0  0
   -7.5610   -0.1344    0.0000 C   0  0  0  0  0  0  0  0  0  0  0  0
   -8.8602    0.6154    0.0000 O   0  0  0  0  0  0  0  0  0  0  0  0
   -6.2612   -3.8860    0.0000 O   0  0  0  0  0  0  0  0  0  0  0  0
   -4.9626    2.8654    0.0000 O   0  0  0  0  0  0  0  0  0  0  0  0
  -10.1590    4.3654    0.0000 C   0  0  0  0  0  0  0  0  0  0  0  0
  -11.4579    5.1156    0.0000 C   0  0  0  0  0  0  0  0  0  0  0  0
  -11.4572    6.6165    0.0000 C   0  0  0  0  0  0  0  0  0  0  0  0
  -10.1575    7.3671    0.0000 C   0  0  0  0  0  0  0  0  0  0  0  0
  -10.1575    8.8671    0.0000 O   0  0  0  0  0  0  0  0  0  0  0  0
  -12.7561    7.3667    0.0000 O   0  0  0  0  0  0  0  0  0  0  0  0
   -4.1292    9.3454    0.0000 C   0  0  0  0  0  0  0  0  0  0  0  0
  1  2  1  0
  2  3  1  0
  2  4  2  0
  4  5  1  0
  5  6  1  0
  6  7  1  0
  7  8  2  0
  8  9  1  0
  9 10  1  0
 10 11  2  0
 11 12  1  0
 12 13  1  0
 13 14  1  0
 14 15  1  0
 15 16  2  0
 16 17  1  0
 17 18  2  0
 18 19  1  0
 19 20  2  0
 15 20  1  0
 20 21  1  0
 18 22  1  0
 14 23  2  0
 11 24  1  0
 24 25  2  0
 25 26  1  0
 26 27  2  0
 10 27  1  0
 27 28  1  0
 26 29  1  0
  7 30  1  0
M  END
>  <cdk:Title>  (305) 
2-Geranyl-2'_3_4_4'-tetrahydroxydihydrochalcone

>  <1A2>  (305) 
N

>  <2A6>  (305) 
N

>  <2B6>  (305) 
N

>  <2C8>  (305) 
N

>  <2C9>  (305) 
N

>  <2C19>  (305) 
N

>  <2D6>  (305) 
N

>  <2E1>  (305) 
N

>  <3A4>  (305) 
N

>  <Citation>  (305) 
Nucleic Acids Res. 2018. Jan 4;46(D1):D608-17. PMID:29140435
Nucleic Acids Res. 2018 Jan 4;46(D1):D1074-D1082. PMID:29126136
Nucleic Acids Res., 45:D380-388 (2017).  PMID:27924025
Nucleic Acids Res. 2016 Jan 4;44(D1):D1202-13. PMID:26400175

>  <ROMol>  (305) 
<rdkit.Chem.rdchem.Mol object at 0x7c2905d305f0>

>  <Drug_like>  (305) 
True

$$$$
(R)-3-Methylpentanoic acid
     RDKit          2D

  8  7  0  0  0  0  0  0  0  0999 V2000
   -0.3637   -0.3005    0.0000 C   0  0  0  0  0  0  0  0  0  0  0  0
    2.1824    1.1695    0.0000 C   0  0  0  0  0  0  0  0  0  0  0  0
    3.8971    0.1795    0.0000 C   0  0  0  0  0  0  0  0  0  0  0  0
    5.6118    1.1695    0.0000 C   0  0  0  0  0  0  0  0  0  0  0  0
    6.9109    0.4195    0.0000 C   0  0  0  0  0  0  0  0  0  0  0  0
    6.9109   -1.0805    0.0000 O   0  0  0  0  0  0  0  0  0  0  0  0
    8.2099    1.1695    0.0000 O   0  0  0  0  0  0  0  0  0  0  0  0
    2.9329   -0.9695    0.0000 C   0  0  0  0  0  0  0  0  0  0  0  0
  1  2  1  0
  2  3  1  0
  3  4  1  0
  4  5  1  0
  5  6  2  0
  5  7  1  0
  3  8  1  0
M  END
>  <cdk:Title>  (306) 
(R)-3-Methylpentanoic acid

>  <1A2>  (306) 
N

>  <2A6>  (306) 
N

>  <2B6>  (306) 
N

>  <2C8>  (306) 
N

>  <2C9>  (306) 
N

>  <2C19>  (306) 
N

>  <2D6>  (306) 
N

>  <2E1>  (306) 
N

>  <3A4>  (306) 
N

>  <Citation>  (306) 
Nucleic Acids Res. 2018. Jan 4;46(D1):D608-17. PMID:29140435
Nucleic Acids Res. 2018 Jan 4;46(D1):D1074-D1082. PMID:29126136
Nucleic Acids Res., 45:D380-388 (2017).  PMID:27924025
Nucleic Acids Res. 2016 Jan 4;44(D1):D1202-13. PMID:26400175

>  <ROMol>  (306) 
<rdkit.Chem.rdchem.Mol object at 0x7c2905d30660>

>  <Drug_like>  (306) 
True

$$$$
Maleic acid homopolymer
     RDKit          2D

 10  9  0  0  0  0  0  0  0  0999 V2000
    7.1839    0.3524    0.0000 C   0  0  0  0  0  0  0  0  0  0  0  0
    5.8848   -0.3976    0.0000 C   0  0  0  0  0  0  0  0  0  0  0  0
    4.5858    0.3524    0.0000 C   0  0  0  0  0  0  0  0  0  0  0  0
    4.5858    1.8524    0.0000 C   0  0  0  0  0  0  0  0  0  0  0  0
    3.2868   -0.3976    0.0000 C   0  0  0  0  0  0  0  0  0  0  0  0
    3.2868   -1.8976    0.0000 O   0  0  0  0  0  0  0  0  0  0  0  0
    1.9877    0.3524    0.0000 O   0  0  0  0  0  0  0  0  0  0  0  0
    5.8848   -1.8976    0.0000 C   0  0  0  0  0  0  0  0  0  0  0  0
    4.5858   -2.6476    0.0000 O   0  0  0  0  0  0  0  0  0  0  0  0
    7.1839   -2.6476    0.0000 O   0  0  0  0  0  0  0  0  0  0  0  0
  1  2  1  0
  2  3  2  0
  3  4  1  0
  3  5  1  0
  5  6  2  0
  5  7  1  0
  2  8  1  0
  8  9  2  0
  8 10  1  0
M  END
>  <cdk:Title>  (307) 
Maleic acid homopolymer

>  <1A2>  (307) 
N

>  <2A6>  (307) 
N

>  <2B6>  (307) 
N

>  <2C8>  (307) 
N

>  <2C9>  (307) 
N

>  <2C19>  (307) 
N

>  <2D6>  (307) 
N

>  <2E1>  (307) 
N

>  <3A4>  (307) 
N

>  <Citation>  (307) 
Nucleic Acids Res. 2018. Jan 4;46(D1):D608-17. PMID:29140435
Nucleic Acids Res. 2018 Jan 4;46(D1):D1074-D1082. PMID:29126136
Nucleic Acids Res., 45:D380-388 (2017).  PMID:27924025
Nucleic Acids Res. 2016 Jan 4;44(D1):D1202-13. PMID:26400175

>  <ROMol>  (307) 
<rdkit.Chem.rdchem.Mol object at 0x7c2905d306d0>

>  <Drug_like>  (307) 
True

$$$$
21-Hydroxypregnenolone
     RDKit          2D

 24 27  0  0  0  0  0  0  0  0999 V2000
   -2.7564   -4.7353    0.0000 C   0  0  0  0  0  0  0  0  0  0  0  0
   -2.7564   -6.2653    0.0000 C   0  0  0  0  0  0  0  0  0  0  0  0
   -1.4464   -7.0153    0.0000 C   0  0  0  0  0  0  0  0  0  0  0  0
   -0.1764   -6.2653    0.0000 C   0  0  0  0  0  0  0  0  0  0  0  0
   -0.1764   -4.7353    0.0000 C   0  0  0  0  0  0  0  0  0  0  0  0
   -1.4464   -4.0153    0.0000 C   0  0  0  0  0  0  0  0  0  0  0  0
    0.1771   -2.7871    0.0000 C   0  0  0  0  0  0  0  0  0  0  0  0
    1.1236   -4.0153    0.0000 C   0  0  0  0  0  0  0  0  0  0  0  0
    2.4536   -4.7353    0.0000 C   0  0  0  0  0  0  0  0  0  0  0  0
    2.4536   -6.2653    0.0000 C   0  0  0  0  0  0  0  0  0  0  0  0
    1.1236   -7.0153    0.0000 C   0  0  0  0  0  0  0  0  0  0  0  0
    3.7236   -4.0153    0.0000 C   0  0  0  0  0  0  0  0  0  0  0  0
    3.7236   -2.5453    0.0000 C   0  0  0  0  0  0  0  0  0  0  0  0
    2.4536   -1.7853    0.0000 C   0  0  0  0  0  0  0  0  0  0  0  0
    1.1236   -2.5453    0.0000 C   0  0  0  0  0  0  0  0  0  0  0  0
    4.0580    0.3756    0.0000 C   0  0  0  0  0  0  0  0  0  0  0  0
    5.1536   -2.0853    0.0000 C   0  0  0  0  0  0  0  0  0  0  0  0
    5.9936   -3.2953    0.0000 C   0  0  0  0  0  0  0  0  0  0  0  0
    5.1536   -4.4853    0.0000 C   0  0  0  0  0  0  0  0  0  0  0  0
    6.8832   -1.1217    0.0000 C   0  0  0  0  0  0  0  0  0  0  0  0
    6.9062    0.3782    0.0000 O   0  0  0  0  0  0  0  0  0  0  0  0
    8.1707   -1.8915    0.0000 C   0  0  0  0  0  0  0  0  0  0  0  0
    8.1477   -3.3913    0.0000 O   0  0  0  0  0  0  0  0  0  0  0  0
   -4.2340   -6.0066    0.0000 O   0  0  0  0  0  0  0  0  0  0  0  0
  1  2  1  0
  2  3  1  0
  3  4  1  0
  4  5  1  0
  5  6  1  0
  1  6  1  0
  5  7  1  1
  5  8  1  0
  8  9  1  0
  9 10  1  0
 10 11  1  0
  4 11  2  0
  9 12  1  0
 12 13  1  0
 13 14  1  0
 14 15  1  0
  8 15  1  0
 13 16  1  1
 13 17  1  0
 17 18  1  0
 18 19  1  0
 12 19  1  0
 17 20  1  0
 20 21  2  0
 20 22  1  0
 22 23  1  0
  2 24  1  0
M  END
>  <cdk:Title>  (308) 
21-Hydroxypregnenolone

>  <1A2>  (308) 
N

>  <2A6>  (308) 
N

>  <2B6>  (308) 
N

>  <2C8>  (308) 
N

>  <2C9>  (308) 
N

>  <2C19>  (308) 
N

>  <2D6>  (308) 
N

>  <2E1>  (308) 
N

>  <3A4>  (308) 
N

>  <Citation>  (308) 
Nucleic Acids Res. 2018. Jan 4;46(D1):D608-17. PMID:29140435
Nucleic Acids Res. 2018 Jan 4;46(D1):D1074-D1082. PMID:29126136
Nucleic Acids Res., 45:D380-388 (2017).  PMID:27924025
Nucleic Acids Res. 2016 Jan 4;44(D1):D1202-13. PMID:26400175

>  <ROMol>  (308) 
<rdkit.Chem.rdchem.Mol object at 0x7c2905d307b0>

>  <Drug_like>  (308) 
True

$$$$
Archangin
     RDKit          2D

 19 21  0  0  0  0  0  0  0  0999 V2000
   -1.7884    4.3313    0.0000 C   0  0  0  0  0  0  0  0  0  0  0  0
   -3.1985    3.8199    0.0000 C   0  0  0  0  0  0  0  0  0  0  0  0
   -3.4573    5.2974    0.0000 C   0  0  0  0  0  0  0  0  0  0  0  0
   -2.4500    2.5200    0.0000 C   0  0  0  0  0  0  0  0  0  0  0  0
   -0.9600    2.3600    0.0000 C   0  0  0  0  0  0  0  0  0  0  0  0
   -0.6500    0.9000    0.0000 C   0  0  0  0  0  0  0  0  0  0  0  0
   -1.9500    0.1500    0.0000 C   0  0  0  0  0  0  0  0  0  0  0  0
   -1.9500   -1.3500    0.0000 C   0  0  0  0  0  0  0  0  0  0  0  0
   -0.6500   -2.1000    0.0000 C   0  0  0  0  0  0  0  0  0  0  0  0
    0.6500   -1.3500    0.0000 C   0  0  0  0  0  0  0  0  0  0  0  0
    1.9500   -2.1000    0.0000 C   0  0  0  0  0  0  0  0  0  0  0  0
    3.2500   -1.3500    0.0000 C   0  0  0  0  0  0  0  0  0  0  0  0
    3.2500    0.1500    0.0000 C   0  0  0  0  0  0  0  0  0  0  0  0
    4.5489    0.9002    0.0000 O   0  0  0  0  0  0  0  0  0  0  0  0
    1.9500    0.9000    0.0000 O   0  0  0  0  0  0  0  0  0  0  0  0
    0.6500    0.1500    0.0000 C   0  0  0  0  0  0  0  0  0  0  0  0
   -3.0600    1.1500    0.0000 O   0  0  0  0  0  0  0  0  0  0  0  0
   -4.6985    3.8216    0.0000 O   0  0  0  0  0  0  0  0  0  0  0  0
   -5.4500    2.5234    0.0000 C   0  0  0  0  0  0  0  0  0  0  0  0
  1  2  1  0
  2  3  1  0
  2  4  1  0
  4  5  2  0
  5  6  1  0
  6  7  2  0
  7  8  1  0
  8  9  2  0
  9 10  1  0
 10 11  1  0
 11 12  2  0
 12 13  1  0
 13 14  2  0
 13 15  1  0
 15 16  1  0
 10 16  2  0
  6 16  1  0
  7 17  1  0
  4 17  1  0
  2 18  1  0
 18 19  1  0
M  END
>  <cdk:Title>  (309) 
Archangin

>  <1A2>  (309) 
N

>  <2A6>  (309) 
N

>  <2B6>  (309) 
N

>  <2C8>  (309) 
N

>  <2C9>  (309) 
N

>  <2C19>  (309) 
N

>  <2D6>  (309) 
N

>  <2E1>  (309) 
N

>  <3A4>  (309) 
N

>  <Citation>  (309) 
Nucleic Acids Res. 2018. Jan 4;46(D1):D608-17. PMID:29140435
Nucleic Acids Res. 2018 Jan 4;46(D1):D1074-D1082. PMID:29126136
Nucleic Acids Res., 45:D380-388 (2017).  PMID:27924025
Nucleic Acids Res. 2016 Jan 4;44(D1):D1202-13. PMID:26400175

>  <ROMol>  (309) 
<rdkit.Chem.rdchem.Mol object at 0x7c2905d30820>

>  <Drug_like>  (309) 
True

$$$$
(-)-Isopinocamphone
     RDKit          2D

 11 12  0  0  0  0  0  0  0  0999 V2000
    2.4338    1.0755    0.0000 C   0  0  0  0  0  0  0  0  0  0  0  0
    0.9438    1.0555    0.0000 C   0  0  0  0  0  0  0  0  0  0  0  0
    0.1938   -0.2445    0.0000 C   0  0  0  0  0  0  0  0  0  0  0  0
    0.9538   -1.5345    0.0000 C   0  0  0  0  0  0  0  0  0  0  0  0
    2.4538   -1.5245    0.0000 C   0  0  0  0  0  0  0  0  0  0  0  0
    3.1938   -0.2145    0.0000 C   0  0  0  0  0  0  0  0  0  0  0  0
    4.6938   -0.2009    0.0000 O   0  0  0  0  0  0  0  0  0  0  0  0
   -0.2562   -0.2445    0.0000 C   0  0  0  0  0  0  0  0  0  0  0  0
   -2.0233    1.4669    0.0000 C   0  0  0  0  0  0  0  0  0  0  0  0
   -2.0095   -1.9700    0.0000 C   0  0  0  0  0  0  0  0  0  0  0  0
    3.8380    1.6031    0.0000 C   0  0  0  0  0  0  0  0  0  0  0  0
  1  2  1  0
  2  3  1  0
  3  4  1  0
  4  5  1  0
  5  6  1  0
  1  6  1  0
  6  7  2  0
  4  8  1  0
  2  8  1  0
  8  9  1  0
  8 10  1  0
  1 11  1  0
M  END
>  <cdk:Title>  (310) 
(-)-Isopinocamphone

>  <1A2>  (310) 
N

>  <2A6>  (310) 
N

>  <2B6>  (310) 
N

>  <2C8>  (310) 
N

>  <2C9>  (310) 
N

>  <2C19>  (310) 
N

>  <2D6>  (310) 
N

>  <2E1>  (310) 
N

>  <3A4>  (310) 
N

>  <Citation>  (310) 
Nucleic Acids Res. 2018. Jan 4;46(D1):D608-17. PMID:29140435
Nucleic Acids Res. 2018 Jan 4;46(D1):D1074-D1082. PMID:29126136
Nucleic Acids Res., 45:D380-388 (2017).  PMID:27924025
Nucleic Acids Res. 2016 Jan 4;44(D1):D1202-13. PMID:26400175

>  <ROMol>  (310) 
<rdkit.Chem.rdchem.Mol object at 0x7c2905d30890>

>  <Drug_like>  (310) 
True

$$$$
24-Hydroxycholesterol
     RDKit          2D

 29 32  0  0  0  0  0  0  0  0999 V2000
   -7.5374   -3.0301    0.0000 C   0  0  0  0  0  0  0  0  0  0  0  0
   -7.5374   -4.5601    0.0000 C   0  0  0  0  0  0  0  0  0  0  0  0
   -6.2274   -5.3101    0.0000 C   0  0  0  0  0  0  0  0  0  0  0  0
   -4.9574   -4.5601    0.0000 C   0  0  0  0  0  0  0  0  0  0  0  0
   -4.9574   -3.0301    0.0000 C   0  0  0  0  0  0  0  0  0  0  0  0
   -6.2274   -2.3101    0.0000 C   0  0  0  0  0  0  0  0  0  0  0  0
   -4.6039   -1.0819    0.0000 C   0  0  0  0  0  0  0  0  0  0  0  0
   -3.6574   -2.3101    0.0000 C   0  0  0  0  0  0  0  0  0  0  0  0
   -2.3274   -3.0301    0.0000 C   0  0  0  0  0  0  0  0  0  0  0  0
   -2.3274   -4.5601    0.0000 C   0  0  0  0  0  0  0  0  0  0  0  0
   -3.6574   -5.3101    0.0000 C   0  0  0  0  0  0  0  0  0  0  0  0
   -1.0574   -2.3101    0.0000 C   0  0  0  0  0  0  0  0  0  0  0  0
   -1.0574   -0.8401    0.0000 C   0  0  0  0  0  0  0  0  0  0  0  0
   -2.3274   -0.0801    0.0000 C   0  0  0  0  0  0  0  0  0  0  0  0
   -3.6574   -0.8401    0.0000 C   0  0  0  0  0  0  0  0  0  0  0  0
   -0.7776    1.6039    0.0000 C   0  0  0  0  0  0  0  0  0  0  0  0
    0.3726   -0.3801    0.0000 C   0  0  0  0  0  0  0  0  0  0  0  0
    1.2126   -1.5901    0.0000 C   0  0  0  0  0  0  0  0  0  0  0  0
    0.3726   -2.7801    0.0000 C   0  0  0  0  0  0  0  0  0  0  0  0
    2.1022    0.5835    0.0000 C   0  0  0  0  0  0  0  0  0  0  0  0
    4.2136   -0.6789    0.0000 C   0  0  0  0  0  0  0  0  0  0  0  0
    6.3626    0.5183    0.0000 C   0  0  0  0  0  0  0  0  0  0  0  0
    8.4739   -0.7441    0.0000 C   0  0  0  0  0  0  0  0  0  0  0  0
    7.4923   -1.8783    0.0000 O   0  0  0  0  0  0  0  0  0  0  0  0
   10.6229    0.4531    0.0000 C   0  0  0  0  0  0  0  0  0  0  0  0
   13.1463   -1.0557    0.0000 C   0  0  0  0  0  0  0  0  0  0  0  0
   11.6046    1.5873    0.0000 C   0  0  0  0  0  0  0  0  0  0  0  0
    3.0839    1.7177    0.0000 C   0  0  0  0  0  0  0  0  0  0  0  0
   -9.0150   -4.3014    0.0000 O   0  0  0  0  0  0  0  0  0  0  0  0
  1  2  1  0
  2  3  1  0
  3  4  1  0
  4  5  1  0
  5  6  1  0
  1  6  1  0
  5  7  1  1
  5  8  1  0
  8  9  1  0
  9 10  1  0
 10 11  1  0
  4 11  2  0
  9 12  1  0
 12 13  1  0
 13 14  1  0
 14 15  1  0
  8 15  1  0
 13 16  1  1
 13 17  1  0
 17 18  1  0
 18 19  1  0
 12 19  1  0
 17 20  1  0
 20 21  1  0
 21 22  1  0
 22 23  1  0
 23 24  1  0
 23 25  1  0
 25 26  1  0
 25 27  1  0
 20 28  1  0
  2 29  1  0
M  END
>  <cdk:Title>  (311) 
24-Hydroxycholesterol

>  <1A2>  (311) 
N

>  <2A6>  (311) 
N

>  <2B6>  (311) 
N

>  <2C8>  (311) 
N

>  <2C9>  (311) 
N

>  <2C19>  (311) 
N

>  <2D6>  (311) 
N

>  <2E1>  (311) 
N

>  <3A4>  (311) 
N

>  <Citation>  (311) 
Nucleic Acids Res. 2018. Jan 4;46(D1):D608-17. PMID:29140435
Nucleic Acids Res. 2018 Jan 4;46(D1):D1074-D1082. PMID:29126136
Nucleic Acids Res., 45:D380-388 (2017).  PMID:27924025
Nucleic Acids Res. 2016 Jan 4;44(D1):D1202-13. PMID:26400175

>  <ROMol>  (311) 
<rdkit.Chem.rdchem.Mol object at 0x7c2905d30900>

>  <Drug_like>  (311) 
True

$$$$
3-Methylbutyl hexanoate
     RDKit          2D

 13 12  0  0  0  0  0  0  0  0999 V2000
   11.9080   -7.5755    0.0000 C   0  0  0  0  0  0  0  0  0  0  0  0
   10.4080   -7.5755    0.0000 C   0  0  0  0  0  0  0  0  0  0  0  0
    9.6580   -6.2765    0.0000 C   0  0  0  0  0  0  0  0  0  0  0  0
    7.1980   -6.2765    0.0000 C   0  0  0  0  0  0  0  0  0  0  0  0
    6.4480   -4.9774    0.0000 C   0  0  0  0  0  0  0  0  0  0  0  0
    4.9480   -4.9774    0.0000 C   0  0  0  0  0  0  0  0  0  0  0  0
    4.1980   -6.2765    0.0000 O   0  0  0  0  0  0  0  0  0  0  0  0
    4.1980   -3.6784    0.0000 O   0  0  0  0  0  0  0  0  0  0  0  0
    2.6980   -3.6784    0.0000 C   0  0  0  0  0  0  0  0  0  0  0  0
    1.9480   -2.3793    0.0000 C   0  0  0  0  0  0  0  0  0  0  0  0
   -0.9920   -2.3793    0.0000 C   0  0  0  0  0  0  0  0  0  0  0  0
   -1.7420   -3.6784    0.0000 C   0  0  0  0  0  0  0  0  0  0  0  0
   -0.5648    0.0433    0.0000 C   0  0  0  0  0  0  0  0  0  0  0  0
  1  2  1  0
  2  3  1  0
  3  4  1  0
  4  5  1  0
  5  6  1  0
  6  7  2  0
  6  8  1  0
  8  9  1  0
  9 10  1  0
 10 11  1  0
 11 12  1  0
 11 13  1  0
M  END
>  <cdk:Title>  (312) 
3-Methylbutyl hexanoate

>  <1A2>  (312) 
N

>  <2A6>  (312) 
N

>  <2B6>  (312) 
N

>  <2C8>  (312) 
N

>  <2C9>  (312) 
N

>  <2C19>  (312) 
N

>  <2D6>  (312) 
N

>  <2E1>  (312) 
N

>  <3A4>  (312) 
N

>  <Citation>  (312) 
Nucleic Acids Res. 2018. Jan 4;46(D1):D608-17. PMID:29140435
Nucleic Acids Res. 2018 Jan 4;46(D1):D1074-D1082. PMID:29126136
Nucleic Acids Res., 45:D380-388 (2017).  PMID:27924025
Nucleic Acids Res. 2016 Jan 4;44(D1):D1202-13. PMID:26400175

>  <ROMol>  (312) 
<rdkit.Chem.rdchem.Mol object at 0x7c2905d309e0>

>  <Drug_like>  (312) 
True

$$$$
12-oxo-10_11-Dihydro-20-carboxy-leukotriene b4
     RDKit          2D

 26 25  0  0  0  0  0  0  0  0999 V2000
   12.6574   16.2294    0.0000 O   0  0  0  0  0  0  0  0  0  0  0  0
   11.5083   17.1936    0.0000 C   0  0  0  0  0  0  0  0  0  0  0  0
   10.7583   18.4926    0.0000 C   0  0  0  0  0  0  0  0  0  0  0  0
   11.9883   20.6230    0.0000 C   0  0  0  0  0  0  0  0  0  0  0  0
   11.2383   21.9221    0.0000 C   0  0  0  0  0  0  0  0  0  0  0  0
   11.9883   23.2211    0.0000 C   0  0  0  0  0  0  0  0  0  0  0  0
   11.2383   24.5202    0.0000 O   0  0  0  0  0  0  0  0  0  0  0  0
   13.4883   23.2211    0.0000 O   0  0  0  0  0  0  0  0  0  0  0  0
   10.7583   15.8945    0.0000 C   0  0  0  0  0  0  0  0  0  0  0  0
   11.5083   14.5955    0.0000 C   0  0  0  0  0  0  0  0  0  0  0  0
   13.0083   14.5955    0.0000 C   0  0  0  0  0  0  0  0  0  0  0  0
   13.7583   13.2965    0.0000 C   0  0  0  0  0  0  0  0  0  0  0  0
   15.2583   13.2965    0.0000 C   0  0  0  0  0  0  0  0  0  0  0  0
   16.0083   11.9974    0.0000 C   0  0  0  0  0  0  0  0  0  0  0  0
   17.5083   11.9974    0.0000 C   0  0  0  0  0  0  0  0  0  0  0  0
   18.2583   13.2965    0.0000 O   0  0  0  0  0  0  0  0  0  0  0  0
   18.2583   10.6984    0.0000 C   0  0  0  0  0  0  0  0  0  0  0  0
   17.5083    9.3994    0.0000 C   0  0  0  0  0  0  0  0  0  0  0  0
   18.2583    8.1003    0.0000 C   0  0  0  0  0  0  0  0  0  0  0  0
   21.1983    8.1003    0.0000 C   0  0  0  0  0  0  0  0  0  0  0  0
   22.1883    9.8151    0.0000 C   0  0  0  0  0  0  0  0  0  0  0  0
   24.6483    9.8151    0.0000 C   0  0  0  0  0  0  0  0  0  0  0  0
   25.3983   11.1141    0.0000 C   0  0  0  0  0  0  0  0  0  0  0  0
   26.8983   11.1141    0.0000 C   0  0  0  0  0  0  0  0  0  0  0  0
   27.6483   12.4131    0.0000 O   0  0  0  0  0  0  0  0  0  0  0  0
   27.6483    9.8151    0.0000 O   0  0  0  0  0  0  0  0  0  0  0  0
  1  2  1  0
  2  3  1  0
  3  4  1  0
  4  5  1  0
  5  6  1  0
  6  7  1  0
  6  8  2  0
  2  9  1  0
  9 10  2  0
 10 11  1  0
 11 12  2  0
 12 13  1  0
 13 14  1  0
 14 15  1  0
 15 16  2  0
 15 17  1  0
 17 18  1  0
 18 19  2  0
 19 20  1  0
 20 21  1  0
 21 22  1  0
 22 23  1  0
 23 24  1  0
 24 25  1  0
 24 26  2  0
M  END
>  <cdk:Title>  (313) 
12-oxo-10_11-Dihydro-20-carboxy-leukotriene b4

>  <1A2>  (313) 
N

>  <2A6>  (313) 
N

>  <2B6>  (313) 
N

>  <2C8>  (313) 
N

>  <2C9>  (313) 
N

>  <2C19>  (313) 
N

>  <2D6>  (313) 
N

>  <2E1>  (313) 
N

>  <3A4>  (313) 
N

>  <Citation>  (313) 
Nucleic Acids Res. 2018. Jan 4;46(D1):D608-17. PMID:29140435
Nucleic Acids Res. 2018 Jan 4;46(D1):D1074-D1082. PMID:29126136
Nucleic Acids Res., 45:D380-388 (2017).  PMID:27924025
Nucleic Acids Res. 2016 Jan 4;44(D1):D1202-13. PMID:26400175

>  <ROMol>  (313) 
<rdkit.Chem.rdchem.Mol object at 0x7c2905d30a50>

>  <Drug_like>  (313) 
True

$$$$
UROBILIN
     RDKit          2D

 43 46  0  0  0  0  0  0  0  0999 V2000
   -5.7565  -12.3454    0.0000 O   0  0  0  0  0  0  0  0  0  0  0  0
   -4.2620  -12.2173    0.0000 C   0  0  0  0  0  0  0  0  0  0  0  0
   -3.4038  -13.4476    0.0000 O   0  0  0  0  0  0  0  0  0  0  0  0
   -3.6256  -10.8590    0.0000 C   0  0  0  0  0  0  0  0  0  0  0  0
   -2.1311  -10.7309    0.0000 C   0  0  0  0  0  0  0  0  0  0  0  0
   -1.4948   -9.3726    0.0000 C   0  0  0  0  0  0  0  0  0  0  0  0
   -2.2155   -8.0655    0.0000 C   0  0  0  0  0  0  0  0  0  0  0  0
   -1.1961   -6.9623    0.0000 N   0  0  0  0  0  0  0  0  0  0  0  0
    0.1607   -7.6069    0.0000 C   0  0  0  0  0  0  0  0  0  0  0  0
    1.8961   -6.6536    0.0000 C   0  0  0  0  0  0  0  0  0  0  0  0
    1.9280   -5.1540    0.0000 C   0  0  0  0  0  0  0  0  0  0  0  0
    1.6404   -3.6797    0.0000 N   0  0  0  0  0  0  0  0  0  0  0  0
    2.9621   -2.9660    0.0000 C   0  0  0  0  0  0  0  0  0  0  0  0
    3.1563   -1.4787    0.0000 O   0  0  0  0  0  0  0  0  0  0  0  0
    4.0493   -3.9887    0.0000 C   0  0  0  0  0  0  0  0  0  0  0  0
    5.5231   -3.7095    0.0000 C   0  0  0  0  0  0  0  0  0  0  0  0
    6.0182   -2.2936    0.0000 C   0  0  0  0  0  0  0  0  0  0  0  0
    3.4084   -5.3449    0.0000 C   0  0  0  0  0  0  0  0  0  0  0  0
    4.1282   -6.6609    0.0000 C   0  0  0  0  0  0  0  0  0  0  0  0
   -0.0219   -9.0884    0.0000 C   0  0  0  0  0  0  0  0  0  0  0  0
    1.0742  -10.1123    0.0000 C   0  0  0  0  0  0  0  0  0  0  0  0
   -3.7045   -7.8844    0.0000 C   0  0  0  0  0  0  0  0  0  0  0  0
   -4.2922   -6.5043    0.0000 C   0  0  0  0  0  0  0  0  0  0  0  0
   -3.5157   -5.2185    0.0000 N   0  0  0  0  0  0  0  0  0  0  0  0
   -4.5119   -4.0943    0.0000 C   0  0  0  0  0  0  0  0  0  0  0  0
   -4.1834   -2.6307    0.0000 C   0  0  0  0  0  0  0  0  0  0  0  0
   -5.2867   -1.6145    0.0000 C   0  0  0  0  0  0  0  0  0  0  0  0
   -6.5824   -0.8546    0.0000 N   0  0  0  0  0  0  0  0  0  0  0  0
   -6.2429    0.6086    0.0000 C   0  0  0  0  0  0  0  0  0  0  0  0
   -7.2296    1.7385    0.0000 O   0  0  0  0  0  0  0  0  0  0  0  0
   -4.7567    0.7471    0.0000 C   0  0  0  0  0  0  0  0  0  0  0  0
   -3.9908    2.0369    0.0000 C   0  0  0  0  0  0  0  0  0  0  0  0
   -4.1640   -0.6308    0.0000 C   0  0  0  0  0  0  0  0  0  0  0  0
   -2.7010   -0.9619    0.0000 C   0  0  0  0  0  0  0  0  0  0  0  0
   -1.6828    0.1395    0.0000 C   0  0  0  0  0  0  0  0  0  0  0  0
   -5.8843   -4.6813    0.0000 C   0  0  0  0  0  0  0  0  0  0  0  0
   -7.1725   -3.9129    0.0000 C   0  0  0  0  0  0  0  0  0  0  0  0
   -5.7481   -6.1751    0.0000 C   0  0  0  0  0  0  0  0  0  0  0  0
   -7.2371   -7.4802    0.0000 C   0  0  0  0  0  0  0  0  0  0  0  0
   -6.9449   -8.9515    0.0000 C   0  0  0  0  0  0  0  0  0  0  0  0
   -8.0729   -9.9402    0.0000 C   0  0  0  0  0  0  0  0  0  0  0  0
   -7.7807  -11.4114    0.0000 O   0  0  0  0  0  0  0  0  0  0  0  0
   -9.4932   -9.4576    0.0000 O   0  0  0  0  0  0  0  0  0  0  0  0
  1  2  1  0
  2  3  2  0
  2  4  1  0
  4  5  1  0
  5  6  1  0
  6  7  1  0
  7  8  1  0
  8  9  2  0
  9 10  1  0
 10 11  1  0
 11 12  1  0
 12 13  1  0
 13 14  2  0
 13 15  1  0
 15 16  1  0
 16 17  1  0
 15 18  2  0
 11 18  1  0
 18 19  1  0
  9 20  1  0
  6 20  2  0
 20 21  1  0
  7 22  2  0
 22 23  1  0
 23 24  1  0
 24 25  1  0
 25 26  1  0
 26 27  1  0
 27 28  1  0
 28 29  1  0
 29 30  2  0
 29 31  1  0
 31 32  1  0
 31 33  2  0
 27 33  1  0
 33 34  1  0
 34 35  1  0
 25 36  2  0
 36 37  1  0
 36 38  1  0
 23 38  2  0
 38 39  1  0
 39 40  1  0
 40 41  1  0
 41 42  1  0
 41 43  2  0
M  END
>  <cdk:Title>  (314) 
UROBILIN

>  <1A2>  (314) 
N

>  <2A6>  (314) 
N

>  <2B6>  (314) 
N

>  <2C8>  (314) 
N

>  <2C9>  (314) 
N

>  <2C19>  (314) 
N

>  <2D6>  (314) 
N

>  <2E1>  (314) 
N

>  <3A4>  (314) 
N

>  <Citation>  (314) 
Nucleic Acids Res. 2018. Jan 4;46(D1):D608-17. PMID:29140435
Nucleic Acids Res. 2018 Jan 4;46(D1):D1074-D1082. PMID:29126136
Nucleic Acids Res., 45:D380-388 (2017).  PMID:27924025
Nucleic Acids Res. 2016 Jan 4;44(D1):D1202-13. PMID:26400175

>  <ROMol>  (314) 
<rdkit.Chem.rdchem.Mol object at 0x7c2905d30ac0>

>  <Drug_like>  (314) 
True

$$$$
(Z)-N-[(4-Hydroxyphenyl)methyl]ethoxycarbothioamide 4'-(tri-acetylrhamnoside)
     RDKit          2D

 33 34  0  0  0  0  0  0  0  0999 V2000
   -2.9858   -4.3556    0.0000 C   0  0  0  0  0  0  0  0  0  0  0  0
   -2.9858   -2.8556    0.0000 C   0  0  0  0  0  0  0  0  0  0  0  0
   -1.7158   -2.1056    0.0000 C   0  0  0  0  0  0  0  0  0  0  0  0
   -0.3658   -2.8556    0.0000 C   0  0  0  0  0  0  0  0  0  0  0  0
   -0.3658   -4.3556    0.0000 C   0  0  0  0  0  0  0  0  0  0  0  0
   -1.7158   -5.1056    0.0000 C   0  0  0  0  0  0  0  0  0  0  0  0
    0.9270   -2.0949    0.0000 O   0  0  0  0  0  0  0  0  0  0  0  0
    2.2322   -2.8342    0.0000 C   0  0  0  0  0  0  0  0  0  0  0  0
    3.2229   -3.9845    0.0000 O   0  0  0  0  0  0  0  0  0  0  0  0
    4.6995   -3.7156    0.0000 C   0  0  0  0  0  0  0  0  0  0  0  0
    5.2007   -2.3125    0.0000 C   0  0  0  0  0  0  0  0  0  0  0  0
    4.2322   -1.1594    0.0000 C   0  0  0  0  0  0  0  0  0  0  0  0
    2.7335   -1.4310    0.0000 C   0  0  0  0  0  0  0  0  0  0  0  0
    2.7257    0.0689    0.0000 O   0  0  0  0  0  0  0  0  0  0  0  0
    1.4228    0.8122    0.0000 C   0  0  0  0  0  0  0  0  0  0  0  0
    1.4151    2.3122    0.0000 C   0  0  0  0  0  0  0  0  0  0  0  0
    0.1277    0.0556    0.0000 O   0  0  0  0  0  0  0  0  0  0  0  0
    5.5298   -0.4069    0.0000 O   0  0  0  0  0  0  0  0  0  0  0  0
    5.5269    1.0931    0.0000 C   0  0  0  0  0  0  0  0  0  0  0  0
    6.8245    1.8456    0.0000 C   0  0  0  0  0  0  0  0  0  0  0  0
    4.2264    1.8406    0.0000 O   0  0  0  0  0  0  0  0  0  0  0  0
    6.5029   -3.0571    0.0000 O   0  0  0  0  0  0  0  0  0  0  0  0
    7.7988   -2.3017    0.0000 C   0  0  0  0  0  0  0  0  0  0  0  0
    9.1009   -3.0463    0.0000 C   0  0  0  0  0  0  0  0  0  0  0  0
    7.7926   -0.8017    0.0000 O   0  0  0  0  0  0  0  0  0  0  0  0
    4.7081   -5.2156    0.0000 C   0  0  0  0  0  0  0  0  0  0  0  0
   -4.2885   -5.0992    0.0000 C   0  0  0  0  0  0  0  0  0  0  0  0
   -5.5838   -4.3428    0.0000 N   0  0  0  0  0  0  0  0  0  0  0  0
   -6.8866   -5.0864    0.0000 C   0  0  0  0  0  0  0  0  0  0  0  0
   -8.1819   -4.3300    0.0000 O   0  0  0  0  0  0  0  0  0  0  0  0
   -9.4846   -5.0736    0.0000 C   0  0  0  0  0  0  0  0  0  0  0  0
  -10.7799   -4.3173    0.0000 C   0  0  0  0  0  0  0  0  0  0  0  0
   -6.8939   -6.5864    0.0000 S   0  0  0  0  0  0  0  0  0  0  0  0
  1  2  2  0
  2  3  1  0
  3  4  2  0
  4  5  1  0
  5  6  2  0
  1  6  1  0
  4  7  1  0
  7  8  1  0
  8  9  1  0
  9 10  1  0
 10 11  1  0
 11 12  1  0
 12 13  1  0
  8 13  1  0
 13 14  1  0
 14 15  1  0
 15 16  1  0
 15 17  2  0
 12 18  1  0
 18 19  1  0
 19 20  1  0
 19 21  2  0
 11 22  1  0
 22 23  1  0
 23 24  1  0
 23 25  2  0
 10 26  1  0
  1 27  1  0
 27 28  1  0
 28 29  2  0
 29 30  1  0
 30 31  1  0
 31 32  1  0
 29 33  1  0
M  END
>  <cdk:Title>  (315) 
(Z)-N-[(4-Hydroxyphenyl)methyl]ethoxycarbothioamide 4'-(tri-acetylrhamnoside)

>  <1A2>  (315) 
N

>  <2A6>  (315) 
N

>  <2B6>  (315) 
N

>  <2C8>  (315) 
N

>  <2C9>  (315) 
N

>  <2C19>  (315) 
N

>  <2D6>  (315) 
N

>  <2E1>  (315) 
N

>  <3A4>  (315) 
N

>  <Citation>  (315) 
Nucleic Acids Res. 2018. Jan 4;46(D1):D608-17. PMID:29140435
Nucleic Acids Res. 2018 Jan 4;46(D1):D1074-D1082. PMID:29126136
Nucleic Acids Res., 45:D380-388 (2017).  PMID:27924025
Nucleic Acids Res. 2016 Jan 4;44(D1):D1202-13. PMID:26400175

>  <ROMol>  (315) 
<rdkit.Chem.rdchem.Mol object at 0x7c2905d30b30>

>  <Drug_like>  (315) 
True

$$$$
7-Acetoxy-2-methylisoflavone
     RDKit          2D

 22 24  0  0  0  0  0  0  0  0999 V2000
    1.3000   -3.0000    0.0000 O   0  0  0  0  0  0  0  0  0  0  0  0
    1.3000   -1.5000    0.0000 C   0  0  0  0  0  0  0  0  0  0  0  0
    0.0000   -0.7500    0.0000 C   0  0  0  0  0  0  0  0  0  0  0  0
   -1.3000   -1.5000    0.0000 C   0  0  0  0  0  0  0  0  0  0  0  0
   -2.6000   -0.7500    0.0000 C   0  0  0  0  0  0  0  0  0  0  0  0
   -2.6000    0.7500    0.0000 C   0  0  0  0  0  0  0  0  0  0  0  0
   -1.3000    1.5000    0.0000 C   0  0  0  0  0  0  0  0  0  0  0  0
    0.0000    0.7500    0.0000 C   0  0  0  0  0  0  0  0  0  0  0  0
    1.3000    1.5000    0.0000 O   0  0  0  0  0  0  0  0  0  0  0  0
    2.6000    0.7500    0.0000 C   0  0  0  0  0  0  0  0  0  0  0  0
    2.6000   -0.7500    0.0000 C   0  0  0  0  0  0  0  0  0  0  0  0
    3.8989   -1.5002    0.0000 C   0  0  0  0  0  0  0  0  0  0  0  0
    5.1986   -0.7496    0.0000 C   0  0  0  0  0  0  0  0  0  0  0  0
    6.4975   -1.4998    0.0000 C   0  0  0  0  0  0  0  0  0  0  0  0
    6.4968   -3.0006    0.0000 C   0  0  0  0  0  0  0  0  0  0  0  0
    5.1971   -3.7512    0.0000 C   0  0  0  0  0  0  0  0  0  0  0  0
    3.8982   -3.0010    0.0000 C   0  0  0  0  0  0  0  0  0  0  0  0
    3.8989    1.5002    0.0000 C   0  0  0  0  0  0  0  0  0  0  0  0
   -3.8989    1.5002    0.0000 O   0  0  0  0  0  0  0  0  0  0  0  0
   -5.1981    0.7504    0.0000 C   0  0  0  0  0  0  0  0  0  0  0  0
   -6.4970    1.5006    0.0000 C   0  0  0  0  0  0  0  0  0  0  0  0
   -5.1983   -0.7496    0.0000 O   0  0  0  0  0  0  0  0  0  0  0  0
  1  2  2  0
  2  3  1  0
  3  4  2  0
  4  5  1  0
  5  6  2  0
  6  7  1  0
  7  8  2  0
  3  8  1  0
  8  9  1  0
  9 10  1  0
 10 11  2  0
  2 11  1  0
 11 12  1  0
 12 13  2  0
 13 14  1  0
 14 15  2  0
 15 16  1  0
 16 17  2  0
 12 17  1  0
 10 18  1  0
  6 19  1  0
 19 20  1  0
 20 21  1  0
 20 22  2  0
M  END
>  <cdk:Title>  (316) 
7-Acetoxy-2-methylisoflavone

>  <1A2>  (316) 
N

>  <2A6>  (316) 
N

>  <2B6>  (316) 
N

>  <2C8>  (316) 
N

>  <2C9>  (316) 
N

>  <2C19>  (316) 
N

>  <2D6>  (316) 
N

>  <2E1>  (316) 
N

>  <3A4>  (316) 
N

>  <Citation>  (316) 
Nucleic Acids Res. 2018. Jan 4;46(D1):D608-17. PMID:29140435
Nucleic Acids Res. 2018 Jan 4;46(D1):D1074-D1082. PMID:29126136
Nucleic Acids Res., 45:D380-388 (2017).  PMID:27924025
Nucleic Acids Res. 2016 Jan 4;44(D1):D1202-13. PMID:26400175

>  <ROMol>  (316) 
<rdkit.Chem.rdchem.Mol object at 0x7c2905d30ba0>

>  <Drug_like>  (316) 
True

$$$$
L-Tyrosine
     RDKit          2D

 13 13  0  0  0  0  0  0  0  0999 V2000
   -3.2519    1.8738    0.0000 O   0  0  0  0  0  0  0  0  0  0  0  0
   -1.9492    2.6174    0.0000 C   0  0  0  0  0  0  0  0  0  0  0  0
   -1.9418    4.1174    0.0000 O   0  0  0  0  0  0  0  0  0  0  0  0
   -0.6539    1.8610    0.0000 C   0  0  0  0  0  0  0  0  0  0  0  0
    0.6488    2.6046    0.0000 C   0  0  0  0  0  0  0  0  0  0  0  0
    1.9442    1.8482    0.0000 C   0  0  0  0  0  0  0  0  0  0  0  0
    3.2432    2.5982    0.0000 C   0  0  0  0  0  0  0  0  0  0  0  0
    4.5277    1.8734    0.0000 C   0  0  0  0  0  0  0  0  0  0  0  0
    4.5532    0.3292    0.0000 C   0  0  0  0  0  0  0  0  0  0  0  0
    5.8584   -0.4100    0.0000 O   0  0  0  0  0  0  0  0  0  0  0  0
    3.2542   -0.4208    0.0000 C   0  0  0  0  0  0  0  0  0  0  0  0
    1.9296    0.3734    0.0000 C   0  0  0  0  0  0  0  0  0  0  0  0
   -1.6237    0.7167    0.0000 N   0  0  0  0  0  0  0  0  0  0  0  0
  1  2  1  0
  2  3  2  0
  2  4  1  0
  4  5  1  0
  5  6  1  0
  6  7  2  0
  7  8  1  0
  8  9  2  0
  9 10  1  0
  9 11  1  0
 11 12  2  0
  6 12  1  0
  4 13  1  0
M  END
>  <cdk:Title>  (317) 
L-Tyrosine

>  <1A2>  (317) 
N

>  <2A6>  (317) 
N

>  <2B6>  (317) 
N

>  <2C8>  (317) 
N

>  <2C9>  (317) 
N

>  <2C19>  (317) 
N

>  <2D6>  (317) 
N

>  <2E1>  (317) 
N

>  <3A4>  (317) 
N

>  <Citation>  (317) 
Nucleic Acids Res. 2018. Jan 4;46(D1):D608-17. PMID:29140435
Nucleic Acids Res. 2018 Jan 4;46(D1):D1074-D1082. PMID:29126136
Nucleic Acids Res., 45:D380-388 (2017).  PMID:27924025
Nucleic Acids Res. 2016 Jan 4;44(D1):D1202-13. PMID:26400175

>  <ROMol>  (317) 
<rdkit.Chem.rdchem.Mol object at 0x7c2905d30c10>

>  <Drug_like>  (317) 
True

$$$$
Norartocarpetin
     RDKit          2D

 21 23  0  0  0  0  0  0  0  0999 V2000
    6.4989    1.5002    0.0000 C   0  0  0  0  0  0  0  0  0  0  0  0
    5.1989    0.7502    0.0000 C   0  0  0  0  0  0  0  0  0  0  0  0
    3.8989    1.5002    0.0000 C   0  0  0  0  0  0  0  0  0  0  0  0
    3.8989    3.0002    0.0000 C   0  0  0  0  0  0  0  0  0  0  0  0
    5.1989    3.7502    0.0000 C   0  0  0  0  0  0  0  0  0  0  0  0
    6.4989    3.0002    0.0000 C   0  0  0  0  0  0  0  0  0  0  0  0
    7.7978    3.7504    0.0000 O   0  0  0  0  0  0  0  0  0  0  0  0
    2.6000    3.7504    0.0000 O   0  0  0  0  0  0  0  0  0  0  0  0
    2.6000    0.7500    0.0000 C   0  0  0  0  0  0  0  0  0  0  0  0
    2.6000   -0.7500    0.0000 C   0  0  0  0  0  0  0  0  0  0  0  0
    1.3000   -1.5000    0.0000 C   0  0  0  0  0  0  0  0  0  0  0  0
    0.0000   -0.7500    0.0000 C   0  0  0  0  0  0  0  0  0  0  0  0
   -1.3000   -1.5000    0.0000 C   0  0  0  0  0  0  0  0  0  0  0  0
   -2.6000   -0.7500    0.0000 C   0  0  0  0  0  0  0  0  0  0  0  0
   -2.6000    0.7500    0.0000 C   0  0  0  0  0  0  0  0  0  0  0  0
   -1.3000    1.5000    0.0000 C   0  0  0  0  0  0  0  0  0  0  0  0
    0.0000    0.7500    0.0000 C   0  0  0  0  0  0  0  0  0  0  0  0
    1.3000    1.5000    0.0000 O   0  0  0  0  0  0  0  0  0  0  0  0
   -3.8989    1.5002    0.0000 O   0  0  0  0  0  0  0  0  0  0  0  0
   -1.3000   -3.0000    0.0000 O   0  0  0  0  0  0  0  0  0  0  0  0
    1.3000   -3.0000    0.0000 O   0  0  0  0  0  0  0  0  0  0  0  0
  1  2  2  0
  2  3  1  0
  3  4  2  0
  4  5  1  0
  5  6  2  0
  1  6  1  0
  6  7  1  0
  4  8  1  0
  3  9  1  0
  9 10  2  0
 10 11  1  0
 11 12  1  0
 12 13  2  0
 13 14  1  0
 14 15  2  0
 15 16  1  0
 16 17  2  0
 12 17  1  0
 17 18  1  0
  9 18  1  0
 15 19  1  0
 13 20  1  0
 11 21  2  0
M  END
>  <cdk:Title>  (318) 
Norartocarpetin

>  <1A2>  (318) 
N

>  <2A6>  (318) 
N

>  <2B6>  (318) 
N

>  <2C8>  (318) 
N

>  <2C9>  (318) 
N

>  <2C19>  (318) 
N

>  <2D6>  (318) 
N

>  <2E1>  (318) 
N

>  <3A4>  (318) 
N

>  <Citation>  (318) 
Nucleic Acids Res. 2018. Jan 4;46(D1):D608-17. PMID:29140435
Nucleic Acids Res. 2018 Jan 4;46(D1):D1074-D1082. PMID:29126136
Nucleic Acids Res., 45:D380-388 (2017).  PMID:27924025
Nucleic Acids Res. 2016 Jan 4;44(D1):D1202-13. PMID:26400175

>  <ROMol>  (318) 
<rdkit.Chem.rdchem.Mol object at 0x7c2905d30c80>

>  <Drug_like>  (318) 
True

$$$$
(-)-Carvone
     RDKit          2D

 11 11  0  0  0  0  0  0  0  0999 V2000
    3.6500   -0.5887    0.0000 C   0  0  0  0  0  0  0  0  0  0  0  0
    2.1500   -0.5887    0.0000 C   0  0  0  0  0  0  0  0  0  0  0  0
    1.4000   -1.8887    0.0000 C   0  0  0  0  0  0  0  0  0  0  0  0
   -0.1000   -1.8887    0.0000 C   0  0  0  0  0  0  0  0  0  0  0  0
   -0.8500   -0.5887    0.0000 C   0  0  0  0  0  0  0  0  0  0  0  0
   -0.1000    0.7113    0.0000 C   0  0  0  0  0  0  0  0  0  0  0  0
    1.4000    0.7113    0.0000 C   0  0  0  0  0  0  0  0  0  0  0  0
    2.1502    2.0102    0.0000 O   0  0  0  0  0  0  0  0  0  0  0  0
   -2.7347    0.9924    0.0000 C   0  0  0  0  0  0  0  0  0  0  0  0
   -4.1442    0.4792    0.0000 C   0  0  0  0  0  0  0  0  0  0  0  0
   -2.4744    2.4696    0.0000 C   0  0  0  0  0  0  0  0  0  0  0  0
  1  2  1  0
  2  3  2  0
  3  4  1  0
  4  5  1  0
  5  6  1  0
  6  7  1  0
  2  7  1  0
  7  8  2  0
  5  9  1  0
  9 10  2  0
  9 11  1  0
M  END
>  <cdk:Title>  (319) 
(-)-Carvone

>  <1A2>  (319) 
N

>  <2A6>  (319) 
N

>  <2B6>  (319) 
N

>  <2C8>  (319) 
N

>  <2C9>  (319) 
N

>  <2C19>  (319) 
N

>  <2D6>  (319) 
N

>  <2E1>  (319) 
N

>  <3A4>  (319) 
N

>  <Citation>  (319) 
Nucleic Acids Res. 2018. Jan 4;46(D1):D608-17. PMID:29140435
Nucleic Acids Res. 2018 Jan 4;46(D1):D1074-D1082. PMID:29126136
Nucleic Acids Res., 45:D380-388 (2017).  PMID:27924025
Nucleic Acids Res. 2016 Jan 4;44(D1):D1202-13. PMID:26400175

>  <ROMol>  (319) 
<rdkit.Chem.rdchem.Mol object at 0x7c2905d30cf0>

>  <Drug_like>  (319) 
True

$$$$
(2S_3R)-2-(3-Hydroxy-4-methoxyphenyl)-3_4-dihydro-2H-1-benzopyran-3_5_7-triol
     RDKit          2D

 22 24  0  0  0  0  0  0  0  0999 V2000
    9.3089    1.3090    0.0000 C   0  0  0  0  0  0  0  0  0  0  0  0
    8.3449    0.1598    0.0000 O   0  0  0  0  0  0  0  0  0  0  0  0
    6.8676    0.4201    0.0000 C   0  0  0  0  0  0  0  0  0  0  0  0
    5.9034   -0.7300    0.0000 C   0  0  0  0  0  0  0  0  0  0  0  0
    4.4262   -0.4697    0.0000 C   0  0  0  0  0  0  0  0  0  0  0  0
    3.9132    0.9408    0.0000 C   0  0  0  0  0  0  0  0  0  0  0  0
    4.8774    2.0909    0.0000 C   0  0  0  0  0  0  0  0  0  0  0  0
    6.3546    1.8306    0.0000 C   0  0  0  0  0  0  0  0  0  0  0  0
    7.3189    2.9796    0.0000 O   0  0  0  0  0  0  0  0  0  0  0  0
    1.4905    1.3677    0.0000 C   0  0  0  0  0  0  0  0  0  0  0  0
    1.4905   -0.1323    0.0000 C   0  0  0  0  0  0  0  0  0  0  0  0
    0.1905   -0.8823    0.0000 C   0  0  0  0  0  0  0  0  0  0  0  0
   -1.1095   -0.1323    0.0000 C   0  0  0  0  0  0  0  0  0  0  0  0
   -2.4095   -0.8823    0.0000 C   0  0  0  0  0  0  0  0  0  0  0  0
   -3.7095   -0.1323    0.0000 C   0  0  0  0  0  0  0  0  0  0  0  0
   -3.7095    1.3677    0.0000 C   0  0  0  0  0  0  0  0  0  0  0  0
   -2.4095    2.1177    0.0000 C   0  0  0  0  0  0  0  0  0  0  0  0
   -1.1095    1.3677    0.0000 C   0  0  0  0  0  0  0  0  0  0  0  0
    0.1905    2.1177    0.0000 O   0  0  0  0  0  0  0  0  0  0  0  0
   -5.0084    2.1179    0.0000 O   0  0  0  0  0  0  0  0  0  0  0  0
   -2.4095   -2.3823    0.0000 O   0  0  0  0  0  0  0  0  0  0  0  0
    2.1673   -1.9930    0.0000 O   0  0  0  0  0  0  0  0  0  0  0  0
  1  2  1  0
  2  3  1  0
  3  4  2  0
  4  5  1  0
  5  6  2  0
  6  7  1  0
  7  8  2  0
  3  8  1  0
  8  9  1  0
  6 10  1  0
 10 11  1  0
 11 12  1  0
 12 13  1  0
 13 14  2  0
 14 15  1  0
 15 16  2  0
 16 17  1  0
 17 18  2  0
 13 18  1  0
 18 19  1  0
 10 19  1  0
 16 20  1  0
 14 21  1  0
 11 22  1  0
M  END
>  <cdk:Title>  (320) 
(2S_3R)-2-(3-Hydroxy-4-methoxyphenyl)-3_4-dihydro-2H-1-benzopyran-3_5_7-triol

>  <1A2>  (320) 
N

>  <2A6>  (320) 
N

>  <2B6>  (320) 
N

>  <2C8>  (320) 
N

>  <2C9>  (320) 
N

>  <2C19>  (320) 
N

>  <2D6>  (320) 
N

>  <2E1>  (320) 
N

>  <3A4>  (320) 
N

>  <Citation>  (320) 
Nucleic Acids Res. 2018. Jan 4;46(D1):D608-17. PMID:29140435
Nucleic Acids Res. 2018 Jan 4;46(D1):D1074-D1082. PMID:29126136
Nucleic Acids Res., 45:D380-388 (2017).  PMID:27924025
Nucleic Acids Res. 2016 Jan 4;44(D1):D1202-13. PMID:26400175

>  <ROMol>  (320) 
<rdkit.Chem.rdchem.Mol object at 0x7c2905d30d60>

>  <Drug_like>  (320) 
True

$$$$
Tyramine-O-sulfate
     RDKit          2D

 14 14  0  0  0  0  0  0  0  0999 V2000
    3.8981    0.7714    0.0000 S   0  0  0  0  0  0  0  0  0  0  0  0
    2.5929    1.5107    0.0000 O   0  0  0  0  0  0  0  0  0  0  0  0
    1.3001    0.7500    0.0000 C   0  0  0  0  0  0  0  0  0  0  0  0
   -0.0499    1.5000    0.0000 C   0  0  0  0  0  0  0  0  0  0  0  0
   -1.3199    0.7500    0.0000 C   0  0  0  0  0  0  0  0  0  0  0  0
   -1.3199   -0.7500    0.0000 C   0  0  0  0  0  0  0  0  0  0  0  0
   -2.6226   -1.4936    0.0000 C   0  0  0  0  0  0  0  0  0  0  0  0
   -3.9179   -0.7372    0.0000 C   0  0  0  0  0  0  0  0  0  0  0  0
   -5.2206   -1.4808    0.0000 N   0  0  0  0  0  0  0  0  0  0  0  0
   -0.0499   -1.5000    0.0000 C   0  0  0  0  0  0  0  0  0  0  0  0
    1.3001   -0.7500    0.0000 C   0  0  0  0  0  0  0  0  0  0  0  0
    5.1909    1.5321    0.0000 O   0  0  0  0  0  0  0  0  0  0  0  0
    2.9434   -0.3855    0.0000 O   0  0  0  0  0  0  0  0  0  0  0  0
    4.8717   -0.3696    0.0000 O   0  0  0  0  0  0  0  0  0  0  0  0
  1  2  1  0
  2  3  1  0
  3  4  2  0
  4  5  1  0
  5  6  2  0
  6  7  1  0
  7  8  1  0
  8  9  1  0
  6 10  1  0
 10 11  2  0
  3 11  1  0
  1 12  1  0
  1 13  2  0
  1 14  2  0
M  END
>  <cdk:Title>  (321) 
Tyramine-O-sulfate

>  <1A2>  (321) 
N

>  <2A6>  (321) 
N

>  <2B6>  (321) 
N

>  <2C8>  (321) 
N

>  <2C9>  (321) 
N

>  <2C19>  (321) 
N

>  <2D6>  (321) 
N

>  <2E1>  (321) 
N

>  <3A4>  (321) 
N

>  <Citation>  (321) 
Nucleic Acids Res. 2018. Jan 4;46(D1):D608-17. PMID:29140435
Nucleic Acids Res. 2018 Jan 4;46(D1):D1074-D1082. PMID:29126136
Nucleic Acids Res., 45:D380-388 (2017).  PMID:27924025
Nucleic Acids Res. 2016 Jan 4;44(D1):D1202-13. PMID:26400175

>  <ROMol>  (321) 
<rdkit.Chem.rdchem.Mol object at 0x7c2905d30dd0>

>  <Drug_like>  (321) 
True

$$$$
AC1odw8h
     RDKit          2D

 14 13  0  0  0  0  0  0  0  0999 V2000
    9.0933   -5.2500    0.0000 C   0  0  0  0  0  0  0  0  0  0  0  0
    7.7942   -4.5000    0.0000 S   0  0  0  0  0  0  0  0  0  0  0  0
    6.4952   -5.2500    0.0000 C   0  0  0  0  0  0  0  0  0  0  0  0
    5.1962   -4.5000    0.0000 C   0  0  0  0  0  0  0  0  0  0  0  0
    5.1962   -3.0000    0.0000 C   0  0  0  0  0  0  0  0  0  0  0  0
    3.8971   -2.2500    0.0000 N   0  0  0  0  0  0  0  0  0  0  0  0
    2.5981   -3.0000    0.0000 C   0  0  0  0  0  0  0  0  0  0  0  0
    2.5981   -4.5000    0.0000 O   0  0  0  0  0  0  0  0  0  0  0  0
    1.2990   -2.2500    0.0000 C   0  0  0  0  0  0  0  0  0  0  0  0
    1.2990   -0.7500    0.0000 C   0  0  0  0  0  0  0  0  0  0  0  0
    0.7860   -3.6595    0.0000 N   0  0  0  0  0  0  0  0  0  0  0  0
    5.7092   -1.5905    0.0000 C   0  0  0  0  0  0  0  0  0  0  0  0
    7.1864   -1.3300    0.0000 O   0  0  0  0  0  0  0  0  0  0  0  0
    4.7450   -0.4414    0.0000 O   0  0  0  0  0  0  0  0  0  0  0  0
  1  2  1  0
  2  3  1  0
  3  4  1  0
  4  5  1  0
  5  6  1  0
  6  7  1  0
  7  8  2  0
  7  9  1  0
  9 10  1  0
  9 11  1  0
  5 12  1  0
 12 13  1  0
 12 14  2  0
M  END
>  <cdk:Title>  (322) 
AC1odw8h

>  <1A2>  (322) 
N

>  <2A6>  (322) 
N

>  <2B6>  (322) 
N

>  <2C8>  (322) 
N

>  <2C9>  (322) 
N

>  <2C19>  (322) 
N

>  <2D6>  (322) 
N

>  <2E1>  (322) 
N

>  <3A4>  (322) 
N

>  <Citation>  (322) 
Nucleic Acids Res. 2018. Jan 4;46(D1):D608-17. PMID:29140435
Nucleic Acids Res. 2018 Jan 4;46(D1):D1074-D1082. PMID:29126136
Nucleic Acids Res., 45:D380-388 (2017).  PMID:27924025
Nucleic Acids Res. 2016 Jan 4;44(D1):D1202-13. PMID:26400175

>  <ROMol>  (322) 
<rdkit.Chem.rdchem.Mol object at 0x7c2905d30e40>

>  <Drug_like>  (322) 
True

$$$$
cis-Ocimene
     RDKit          2D

 10  9  0  0  0  0  0  0  0  0999 V2000
    8.4437   -1.1250    0.0000 C   0  0  0  0  0  0  0  0  0  0  0  0
    8.4437    0.3750    0.0000 C   0  0  0  0  0  0  0  0  0  0  0  0
    7.1447    1.1250    0.0000 C   0  0  0  0  0  0  0  0  0  0  0  0
    7.1447    2.6250    0.0000 C   0  0  0  0  0  0  0  0  0  0  0  0
    9.7428    1.1250    0.0000 C   0  0  0  0  0  0  0  0  0  0  0  0
    7.1447   -1.8750    0.0000 C   0  0  0  0  0  0  0  0  0  0  0  0
    7.1447   -3.3750    0.0000 C   0  0  0  0  0  0  0  0  0  0  0  0
    5.8457   -4.1250    0.0000 C   0  0  0  0  0  0  0  0  0  0  0  0
    5.8457   -5.6250    0.0000 C   0  0  0  0  0  0  0  0  0  0  0  0
    4.5466   -3.3750    0.0000 C   0  0  0  0  0  0  0  0  0  0  0  0
  1  2  2  0
  2  3  1  0
  3  4  2  0
  2  5  1  0
  1  6  1  0
  6  7  1  0
  7  8  2  0
  8  9  1  0
  8 10  1  0
M  END
>  <cdk:Title>  (323) 
cis-Ocimene

>  <1A2>  (323) 
N

>  <2A6>  (323) 
N

>  <2B6>  (323) 
N

>  <2C8>  (323) 
N

>  <2C9>  (323) 
N

>  <2C19>  (323) 
N

>  <2D6>  (323) 
N

>  <2E1>  (323) 
N

>  <3A4>  (323) 
N

>  <Citation>  (323) 
Nucleic Acids Res. 2018. Jan 4;46(D1):D608-17. PMID:29140435
Nucleic Acids Res. 2018 Jan 4;46(D1):D1074-D1082. PMID:29126136
Nucleic Acids Res., 45:D380-388 (2017).  PMID:27924025
Nucleic Acids Res. 2016 Jan 4;44(D1):D1202-13. PMID:26400175

>  <ROMol>  (323) 
<rdkit.Chem.rdchem.Mol object at 0x7c2905d30eb0>

>  <Drug_like>  (323) 
True

$$$$
FT-0675832
     RDKit          2D

 16 18  0  0  0  0  0  0  0  0999 V2000
   -6.4586    1.4790    0.0000 C   0  0  0  0  0  0  0  0  0  0  0  0
   -3.7218    0.4049    0.0000 C   0  0  0  0  0  0  0  0  0  0  0  0
   -4.5668   -0.8345    0.0000 O   0  0  0  0  0  0  0  0  0  0  0  0
   -2.7016   -0.6947    0.0000 C   0  0  0  0  0  0  0  0  0  0  0  0
   -1.2058   -0.5826    0.0000 C   0  0  0  0  0  0  0  0  0  0  0  0
   -0.3608    0.6567    0.0000 C   0  0  0  0  0  0  0  0  0  0  0  0
   -0.8029    2.0901    0.0000 C   0  0  0  0  0  0  0  0  0  0  0  0
   -2.1992    2.6381    0.0000 C   0  0  0  0  0  0  0  0  0  0  0  0
   -3.4983    1.8881    0.0000 C   0  0  0  0  0  0  0  0  0  0  0  0
   -4.6130    2.8918    0.0000 C   0  0  0  0  0  0  0  0  0  0  0  0
   -4.0029    4.2621    0.0000 C   0  0  0  0  0  0  0  0  0  0  0  0
   -2.5111    4.1053    0.0000 C   0  0  0  0  0  0  0  0  0  0  0  0
    0.4128    4.4126    0.0000 C   0  0  0  0  0  0  0  0  0  0  0  0
    0.6595    1.7563    0.0000 C   0  0  0  0  0  0  0  0  0  0  0  0
    2.7259    0.4216    0.0000 C   0  0  0  0  0  0  0  0  0  0  0  0
    3.4688    2.6229    0.0000 C   0  0  0  0  0  0  0  0  0  0  0  0
  2  1  1  1
  2  3  1  0
  2  4  1  0
  4  5  1  0
  5  6  1  0
  6  7  1  0
  7  8  1  0
  8  9  1  0
  2  9  1  0
  9 10  1  0
 10 11  1  0
 11 12  1  0
  8 12  1  0
 12 13  1  0
  7 14  1  0
  6 14  1  0
 14 15  1  0
 14 16  1  0
M  END
>  <cdk:Title>  (324) 
FT-0675832

>  <1A2>  (324) 
N

>  <2A6>  (324) 
N

>  <2B6>  (324) 
N

>  <2C8>  (324) 
N

>  <2C9>  (324) 
N

>  <2C19>  (324) 
N

>  <2D6>  (324) 
N

>  <2E1>  (324) 
N

>  <3A4>  (324) 
N

>  <Citation>  (324) 
Nucleic Acids Res. 2018. Jan 4;46(D1):D608-17. PMID:29140435
Nucleic Acids Res. 2018 Jan 4;46(D1):D1074-D1082. PMID:29126136
Nucleic Acids Res., 45:D380-388 (2017).  PMID:27924025
Nucleic Acids Res. 2016 Jan 4;44(D1):D1202-13. PMID:26400175

>  <ROMol>  (324) 
<rdkit.Chem.rdchem.Mol object at 0x7c2905d30f20>

>  <Drug_like>  (324) 
True

$$$$
16-Methylheptadecanoic acid
     RDKit          2D

 20 19  0  0  0  0  0  0  0  0999 V2000
   23.5469    2.2115    0.0000 C   0  0  0  0  0  0  0  0  0  0  0  0
   22.8697    0.3509    0.0000 C   0  0  0  0  0  0  0  0  0  0  0  0
   22.8697   -1.1491    0.0000 C   0  0  0  0  0  0  0  0  0  0  0  0
   21.5706    1.1009    0.0000 C   0  0  0  0  0  0  0  0  0  0  0  0
   19.8559    0.1109    0.0000 C   0  0  0  0  0  0  0  0  0  0  0  0
   18.1412    1.1009    0.0000 C   0  0  0  0  0  0  0  0  0  0  0  0
   16.4264    0.1109    0.0000 C   0  0  0  0  0  0  0  0  0  0  0  0
   14.7117    1.1009    0.0000 C   0  0  0  0  0  0  0  0  0  0  0  0
   12.9970    0.1109    0.0000 C   0  0  0  0  0  0  0  0  0  0  0  0
   11.2822    1.1009    0.0000 C   0  0  0  0  0  0  0  0  0  0  0  0
    9.5675    0.1109    0.0000 C   0  0  0  0  0  0  0  0  0  0  0  0
    7.8528    1.1009    0.0000 C   0  0  0  0  0  0  0  0  0  0  0  0
    6.1380    0.1109    0.0000 C   0  0  0  0  0  0  0  0  0  0  0  0
    4.4233    1.1009    0.0000 C   0  0  0  0  0  0  0  0  0  0  0  0
    2.7086    0.1109    0.0000 C   0  0  0  0  0  0  0  0  0  0  0  0
    0.9939    1.1009    0.0000 C   0  0  0  0  0  0  0  0  0  0  0  0
   -0.3052    0.3509    0.0000 C   0  0  0  0  0  0  0  0  0  0  0  0
   -1.6042    1.1009    0.0000 C   0  0  0  0  0  0  0  0  0  0  0  0
   -1.6042    2.6009    0.0000 O   0  0  0  0  0  0  0  0  0  0  0  0
   -2.9033    0.3509    0.0000 O   0  0  0  0  0  0  0  0  0  0  0  0
  1  2  1  0
  2  3  1  0
  2  4  1  0
  4  5  1  0
  5  6  1  0
  6  7  1  0
  7  8  1  0
  8  9  1  0
  9 10  1  0
 10 11  1  0
 11 12  1  0
 12 13  1  0
 13 14  1  0
 14 15  1  0
 15 16  1  0
 16 17  1  0
 17 18  1  0
 18 19  2  0
 18 20  1  0
M  END
>  <cdk:Title>  (325) 
16-Methylheptadecanoic acid

>  <1A2>  (325) 
N

>  <2A6>  (325) 
N

>  <2B6>  (325) 
N

>  <2C8>  (325) 
N

>  <2C9>  (325) 
N

>  <2C19>  (325) 
N

>  <2D6>  (325) 
N

>  <2E1>  (325) 
N

>  <3A4>  (325) 
N

>  <Citation>  (325) 
Nucleic Acids Res. 2018. Jan 4;46(D1):D608-17. PMID:29140435
Nucleic Acids Res. 2018 Jan 4;46(D1):D1074-D1082. PMID:29126136
Nucleic Acids Res., 45:D380-388 (2017).  PMID:27924025
Nucleic Acids Res. 2016 Jan 4;44(D1):D1202-13. PMID:26400175

>  <ROMol>  (325) 
<rdkit.Chem.rdchem.Mol object at 0x7c2905d30f90>

>  <Drug_like>  (325) 
True

$$$$
Ethyl 4-methylpentanoate
     RDKit          2D

 10  9  0  0  0  0  0  0  0  0999 V2000
    8.4672   -2.0810    0.0000 C   0  0  0  0  0  0  0  0  0  0  0  0
    7.1682   -1.3310    0.0000 C   0  0  0  0  0  0  0  0  0  0  0  0
    5.8692   -2.0810    0.0000 O   0  0  0  0  0  0  0  0  0  0  0  0
    4.5701   -1.3310    0.0000 C   0  0  0  0  0  0  0  0  0  0  0  0
    3.2711   -2.0810    0.0000 C   0  0  0  0  0  0  0  0  0  0  0  0
    1.9720   -1.3310    0.0000 C   0  0  0  0  0  0  0  0  0  0  0  0
   -0.5741   -2.8010    0.0000 C   0  0  0  0  0  0  0  0  0  0  0  0
   -0.5741   -4.3010    0.0000 C   0  0  0  0  0  0  0  0  0  0  0  0
   -1.2513   -0.9404    0.0000 C   0  0  0  0  0  0  0  0  0  0  0  0
    4.5701    0.1690    0.0000 O   0  0  0  0  0  0  0  0  0  0  0  0
  1  2  1  0
  2  3  1  0
  3  4  1  0
  4  5  1  0
  5  6  1  0
  6  7  1  0
  7  8  1  0
  7  9  1  0
  4 10  2  0
M  END
>  <cdk:Title>  (326) 
Ethyl 4-methylpentanoate

>  <1A2>  (326) 
N

>  <2A6>  (326) 
N

>  <2B6>  (326) 
N

>  <2C8>  (326) 
N

>  <2C9>  (326) 
N

>  <2C19>  (326) 
N

>  <2D6>  (326) 
N

>  <2E1>  (326) 
N

>  <3A4>  (326) 
N

>  <Citation>  (326) 
Nucleic Acids Res. 2018. Jan 4;46(D1):D608-17. PMID:29140435
Nucleic Acids Res. 2018 Jan 4;46(D1):D1074-D1082. PMID:29126136
Nucleic Acids Res., 45:D380-388 (2017).  PMID:27924025
Nucleic Acids Res. 2016 Jan 4;44(D1):D1202-13. PMID:26400175

>  <ROMol>  (326) 
<rdkit.Chem.rdchem.Mol object at 0x7c2905d31000>

>  <Drug_like>  (326) 
True

$$$$
m-Mentha-3(8)_6-diene
     RDKit          2D

 10 10  0  0  0  0  0  0  0  0999 V2000
   -1.4781    0.8049    0.0000 C   0  0  0  0  0  0  0  0  0  0  0  0
   -1.4776    2.3057    0.0000 C   0  0  0  0  0  0  0  0  0  0  0  0
   -0.1831    3.0479    0.0000 C   0  0  0  0  0  0  0  0  0  0  0  0
    1.1160    2.2979    0.0000 C   0  0  0  0  0  0  0  0  0  0  0  0
    1.1205    0.8057    0.0000 C   0  0  0  0  0  0  0  0  0  0  0  0
   -0.1790    0.0549    0.0000 C   0  0  0  0  0  0  0  0  0  0  0  0
    2.4208    0.0579    0.0000 C   0  0  0  0  0  0  0  0  0  0  0  0
    2.4233   -1.4421    0.0000 C   0  0  0  0  0  0  0  0  0  0  0  0
    4.1338    1.0508    0.0000 C   0  0  0  0  0  0  0  0  0  0  0  0
   -2.7772    0.0551    0.0000 C   0  0  0  0  0  0  0  0  0  0  0  0
  1  2  2  0
  2  3  1  0
  3  4  1  0
  4  5  1  0
  5  6  1  0
  1  6  1  0
  5  7  2  3
  7  8  1  0
  7  9  1  0
  1 10  1  0
M  END
>  <cdk:Title>  (327) 
m-Mentha-3(8)_6-diene

>  <1A2>  (327) 
N

>  <2A6>  (327) 
N

>  <2B6>  (327) 
N

>  <2C8>  (327) 
N

>  <2C9>  (327) 
N

>  <2C19>  (327) 
N

>  <2D6>  (327) 
N

>  <2E1>  (327) 
N

>  <3A4>  (327) 
N

>  <Citation>  (327) 
Nucleic Acids Res. 2018. Jan 4;46(D1):D608-17. PMID:29140435
Nucleic Acids Res. 2018 Jan 4;46(D1):D1074-D1082. PMID:29126136
Nucleic Acids Res., 45:D380-388 (2017).  PMID:27924025
Nucleic Acids Res. 2016 Jan 4;44(D1):D1202-13. PMID:26400175

>  <ROMol>  (327) 
<rdkit.Chem.rdchem.Mol object at 0x7c2905d31070>

>  <Drug_like>  (327) 
True

$$$$
7-Sulfocholic acid
     RDKit          2D

 33 36  0  0  0  0  0  0  0  0999 V2000
    1.8727   -4.7332    0.0000 C   0  0  0  0  0  0  0  0  0  0  0  0
    2.1795   -1.8093    0.0000 C   0  0  0  0  0  0  0  0  0  0  0  0
    1.8727   -6.2332    0.0000 C   0  0  0  0  0  0  0  0  0  0  0  0
    0.5827   -6.9832    0.0000 C   0  0  0  0  0  0  0  0  0  0  0  0
   -0.7173   -6.2332    0.0000 C   0  0  0  0  0  0  0  0  0  0  0  0
   -2.0173   -6.9832    0.0000 C   0  0  0  0  0  0  0  0  0  0  0  0
   -2.0173   -4.0432    0.0000 C   0  0  0  0  0  0  0  0  0  0  0  0
   -2.0173   -8.4832    0.0000 C   0  0  0  0  0  0  0  0  0  0  0  0
   -0.7173   -9.2332    0.0000 C   0  0  0  0  0  0  0  0  0  0  0  0
    0.5827   -8.4832    0.0000 C   0  0  0  0  0  0  0  0  0  0  0  0
    1.0954   -9.8929    0.0000 O   0  0  0  0  0  0  0  0  0  0  0  0
    2.5726  -10.1536    0.0000 S   0  0  0  0  0  0  0  0  0  0  0  0
    3.8715  -10.9039    0.0000 O   0  0  0  0  0  0  0  0  0  0  0  0
    2.0592  -11.5631    0.0000 O   0  0  0  0  0  0  0  0  0  0  0  0
    3.5370   -9.0048    0.0000 O   0  0  0  0  0  0  0  0  0  0  0  0
   -3.3173   -9.2332    0.0000 C   0  0  0  0  0  0  0  0  0  0  0  0
   -4.6173   -8.4832    0.0000 C   0  0  0  0  0  0  0  0  0  0  0  0
   -4.6173   -6.9832    0.0000 C   0  0  0  0  0  0  0  0  0  0  0  0
   -3.3173   -6.2332    0.0000 C   0  0  0  0  0  0  0  0  0  0  0  0
   -6.0945   -8.2229    0.0000 O   0  0  0  0  0  0  0  0  0  0  0  0
   -0.7173   -4.7332    0.0000 C   0  0  0  0  0  0  0  0  0  0  0  0
    0.5827   -3.9832    0.0000 C   0  0  0  0  0  0  0  0  0  0  0  0
    1.5493   -2.8362    0.0000 O   0  0  0  0  0  0  0  0  0  0  0  0
    3.3027   -6.6932    0.0000 C   0  0  0  0  0  0  0  0  0  0  0  0
    4.1827   -5.4832    0.0000 C   0  0  0  0  0  0  0  0  0  0  0  0
    3.3027   -4.2632    0.0000 C   0  0  0  0  0  0  0  0  0  0  0  0
    5.0281   -1.8828    0.0000 C   0  0  0  0  0  0  0  0  0  0  0  0
    7.9524   -2.1868    0.0000 C   0  0  0  0  0  0  0  0  0  0  0  0
    9.3961   -0.1950    0.0000 C   0  0  0  0  0  0  0  0  0  0  0  0
   10.8880   -0.3502    0.0000 C   0  0  0  0  0  0  0  0  0  0  0  0
   11.7684    0.8644    0.0000 O   0  0  0  0  0  0  0  0  0  0  0  0
   11.4997   -1.7198    0.0000 O   0  0  0  0  0  0  0  0  0  0  0  0
    5.7036    0.4827    0.0000 C   0  0  0  0  0  0  0  0  0  0  0  0
  1  2  1  1
  1  3  1  0
  3  4  1  0
  4  5  1  0
  5  6  1  0
  6  7  1  1
  6  8  1  0
  8  9  1  0
  9 10  1  0
  4 10  1  0
 10 11  1  0
 11 12  1  0
 12 13  2  0
 12 14  2  0
 12 15  1  0
  8 16  1  0
 16 17  1  0
 17 18  1  0
 18 19  1  0
  6 19  1  0
 17 20  1  0
  5 21  1  0
 21 22  1  0
  1 22  1  0
 22 23  1  0
  3 24  1  0
 24 25  1  0
 25 26  1  0
  1 26  1  0
 26 27  1  0
 27 28  1  0
 28 29  1  0
 29 30  1  0
 30 31  1  0
 30 32  2  0
 27 33  1  0
M  END
>  <cdk:Title>  (328) 
7-Sulfocholic acid

>  <1A2>  (328) 
N

>  <2A6>  (328) 
N

>  <2B6>  (328) 
N

>  <2C8>  (328) 
N

>  <2C9>  (328) 
N

>  <2C19>  (328) 
N

>  <2D6>  (328) 
N

>  <2E1>  (328) 
N

>  <3A4>  (328) 
N

>  <Citation>  (328) 
Nucleic Acids Res. 2018. Jan 4;46(D1):D608-17. PMID:29140435
Nucleic Acids Res. 2018 Jan 4;46(D1):D1074-D1082. PMID:29126136
Nucleic Acids Res., 45:D380-388 (2017).  PMID:27924025
Nucleic Acids Res. 2016 Jan 4;44(D1):D1202-13. PMID:26400175

>  <ROMol>  (328) 
<rdkit.Chem.rdchem.Mol object at 0x7c2905d310e0>

>  <Drug_like>  (328) 
True

$$$$
3'_4'-Dihydroxychalcone
     RDKit          2D

 18 19  0  0  0  0  0  0  0  0999 V2000
    2.0897    0.0221    0.0000 C   0  0  0  0  0  0  0  0  0  0  0  0
    2.8405    1.3216    0.0000 C   0  0  0  0  0  0  0  0  0  0  0  0
    2.0905    2.6207    0.0000 C   0  0  0  0  0  0  0  0  0  0  0  0
    0.5897    2.6202    0.0000 C   0  0  0  0  0  0  0  0  0  0  0  0
   -0.1612    1.3207    0.0000 C   0  0  0  0  0  0  0  0  0  0  0  0
    0.5888    0.0216    0.0000 C   0  0  0  0  0  0  0  0  0  0  0  0
   -0.1603    3.9192    0.0000 C   0  0  0  0  0  0  0  0  0  0  0  0
   -1.6603    3.9192    0.0000 C   0  0  0  0  0  0  0  0  0  0  0  0
   -2.4103    5.2183    0.0000 C   0  0  0  0  0  0  0  0  0  0  0  0
   -3.9103    5.2183    0.0000 C   0  0  0  0  0  0  0  0  0  0  0  0
   -4.6603    6.5183    0.0000 C   0  0  0  0  0  0  0  0  0  0  0  0
   -6.1603    6.5183    0.0000 C   0  0  0  0  0  0  0  0  0  0  0  0
   -6.9103    5.2183    0.0000 C   0  0  0  0  0  0  0  0  0  0  0  0
   -6.1603    3.9183    0.0000 C   0  0  0  0  0  0  0  0  0  0  0  0
   -4.6603    3.9183    0.0000 C   0  0  0  0  0  0  0  0  0  0  0  0
   -6.9106    2.6194    0.0000 O   0  0  0  0  0  0  0  0  0  0  0  0
   -8.4103    5.2183    0.0000 O   0  0  0  0  0  0  0  0  0  0  0  0
   -1.6603    6.5173    0.0000 O   0  0  0  0  0  0  0  0  0  0  0  0
  1  2  2  0
  2  3  1  0
  3  4  2  0
  4  5  1  0
  5  6  2  0
  1  6  1  0
  4  7  1  0
  7  8  2  0
  8  9  1  0
  9 10  1  0
 10 11  2  0
 11 12  1  0
 12 13  2  0
 13 14  1  0
 14 15  2  0
 10 15  1  0
 14 16  1  0
 13 17  1  0
  9 18  2  0
M  END
>  <cdk:Title>  (329) 
3'_4'-Dihydroxychalcone

>  <1A2>  (329) 
N

>  <2A6>  (329) 
N

>  <2B6>  (329) 
N

>  <2C8>  (329) 
N

>  <2C9>  (329) 
N

>  <2C19>  (329) 
N

>  <2D6>  (329) 
N

>  <2E1>  (329) 
N

>  <3A4>  (329) 
N

>  <Citation>  (329) 
Nucleic Acids Res. 2018. Jan 4;46(D1):D608-17. PMID:29140435
Nucleic Acids Res. 2018 Jan 4;46(D1):D1074-D1082. PMID:29126136
Nucleic Acids Res., 45:D380-388 (2017).  PMID:27924025
Nucleic Acids Res. 2016 Jan 4;44(D1):D1202-13. PMID:26400175

>  <ROMol>  (329) 
<rdkit.Chem.rdchem.Mol object at 0x7c2905d31150>

>  <Drug_like>  (329) 
True

$$$$
Heptane-1-thiol
     RDKit          2D

  8  7  0  0  0  0  0  0  0  0999 V2000
   11.2237   -0.0000    0.0000 C   0  0  0  0  0  0  0  0  0  0  0  0
    9.9247   -0.7500    0.0000 C   0  0  0  0  0  0  0  0  0  0  0  0
    8.6256   -0.0000    0.0000 C   0  0  0  0  0  0  0  0  0  0  0  0
    6.9109   -0.9900    0.0000 C   0  0  0  0  0  0  0  0  0  0  0  0
    5.1962   -0.0000    0.0000 C   0  0  0  0  0  0  0  0  0  0  0  0
    3.4814   -0.9900    0.0000 C   0  0  0  0  0  0  0  0  0  0  0  0
    2.1824   -0.2400    0.0000 C   0  0  0  0  0  0  0  0  0  0  0  0
    2.1824    1.2600    0.0000 S   0  0  0  0  0  0  0  0  0  0  0  0
  1  2  1  0
  2  3  1  0
  3  4  1  0
  4  5  1  0
  5  6  1  0
  6  7  1  0
  7  8  1  0
M  END
>  <cdk:Title>  (330) 
Heptane-1-thiol

>  <1A2>  (330) 
N

>  <2A6>  (330) 
N

>  <2B6>  (330) 
N

>  <2C8>  (330) 
N

>  <2C9>  (330) 
N

>  <2C19>  (330) 
N

>  <2D6>  (330) 
N

>  <2E1>  (330) 
N

>  <3A4>  (330) 
N

>  <Citation>  (330) 
Nucleic Acids Res. 2018. Jan 4;46(D1):D608-17. PMID:29140435
Nucleic Acids Res. 2018 Jan 4;46(D1):D1074-D1082. PMID:29126136
Nucleic Acids Res., 45:D380-388 (2017).  PMID:27924025
Nucleic Acids Res. 2016 Jan 4;44(D1):D1202-13. PMID:26400175

>  <ROMol>  (330) 
<rdkit.Chem.rdchem.Mol object at 0x7c2905d31230>

>  <Drug_like>  (330) 
True

$$$$
Nordihydrocapsaicin
     RDKit          2D

 21 21  0  0  0  0  0  0  0  0999 V2000
   -1.6649    4.6630    0.0000 C   0  0  0  0  0  0  0  0  0  0  0  0
   -2.4149    5.9630    0.0000 C   0  0  0  0  0  0  0  0  0  0  0  0
   -3.9149    5.9630    0.0000 C   0  0  0  0  0  0  0  0  0  0  0  0
   -4.6649    4.6630    0.0000 C   0  0  0  0  0  0  0  0  0  0  0  0
   -3.9149    3.3630    0.0000 C   0  0  0  0  0  0  0  0  0  0  0  0
   -2.4149    3.3630    0.0000 C   0  0  0  0  0  0  0  0  0  0  0  0
   -1.6647    2.0641    0.0000 O   0  0  0  0  0  0  0  0  0  0  0  0
   -2.4145    0.7649    0.0000 C   0  0  0  0  0  0  0  0  0  0  0  0
   -6.1649    4.6630    0.0000 C   0  0  0  0  0  0  0  0  0  0  0  0
   -6.9149    5.9620    0.0000 N   0  0  0  0  0  0  0  0  0  0  0  0
   -8.4149    5.9620    0.0000 C   0  0  0  0  0  0  0  0  0  0  0  0
   -9.1649    7.2611    0.0000 C   0  0  0  0  0  0  0  0  0  0  0  0
  -11.1449    7.2611    0.0000 C   0  0  0  0  0  0  0  0  0  0  0  0
  -12.1349    8.9758    0.0000 C   0  0  0  0  0  0  0  0  0  0  0  0
  -14.1149    8.9758    0.0000 C   0  0  0  0  0  0  0  0  0  0  0  0
  -14.8649   10.2748    0.0000 C   0  0  0  0  0  0  0  0  0  0  0  0
  -17.8049   10.2748    0.0000 C   0  0  0  0  0  0  0  0  0  0  0  0
  -18.5549    8.9758    0.0000 C   0  0  0  0  0  0  0  0  0  0  0  0
  -17.3778   12.6974    0.0000 C   0  0  0  0  0  0  0  0  0  0  0  0
   -9.1649    4.6630    0.0000 O   0  0  0  0  0  0  0  0  0  0  0  0
   -0.1649    4.6630    0.0000 O   0  0  0  0  0  0  0  0  0  0  0  0
  1  2  2  0
  2  3  1  0
  3  4  2  0
  4  5  1  0
  5  6  2  0
  1  6  1  0
  6  7  1  0
  7  8  1  0
  4  9  1  0
  9 10  1  0
 10 11  1  0
 11 12  1  0
 12 13  1  0
 13 14  1  0
 14 15  1  0
 15 16  1  0
 16 17  1  0
 17 18  1  0
 17 19  1  0
 11 20  2  0
  1 21  1  0
M  END
>  <cdk:Title>  (331) 
Nordihydrocapsaicin

>  <1A2>  (331) 
N

>  <2A6>  (331) 
N

>  <2B6>  (331) 
N

>  <2C8>  (331) 
N

>  <2C9>  (331) 
N

>  <2C19>  (331) 
N

>  <2D6>  (331) 
N

>  <2E1>  (331) 
N

>  <3A4>  (331) 
N

>  <Citation>  (331) 
Nucleic Acids Res. 2018. Jan 4;46(D1):D608-17. PMID:29140435
Nucleic Acids Res. 2018 Jan 4;46(D1):D1074-D1082. PMID:29126136
Nucleic Acids Res., 45:D380-388 (2017).  PMID:27924025
Nucleic Acids Res. 2016 Jan 4;44(D1):D1202-13. PMID:26400175

>  <ROMol>  (331) 
<rdkit.Chem.rdchem.Mol object at 0x7c2905d312a0>

>  <Drug_like>  (331) 
True

$$$$
(-)-4(10)-Thujene
     RDKit          2D

 10 11  0  0  0  0  0  0  0  0999 V2000
    1.3055   -1.7000    0.0000 C   0  0  0  0  0  0  0  0  0  0  0  0
    0.0055   -2.4600    0.0000 C   0  0  0  0  0  0  0  0  0  0  0  0
    0.0022   -3.9600    0.0000 C   0  0  0  0  0  0  0  0  0  0  0  0
   -1.2645   -1.7100    0.0000 C   0  0  0  0  0  0  0  0  0  0  0  0
   -0.0045    0.5400    0.0000 C   0  0  0  0  0  0  0  0  0  0  0  0
    1.2955   -0.2000    0.0000 C   0  0  0  0  0  0  0  0  0  0  0  0
   -1.3045   -0.2200    0.0000 C   0  0  0  0  0  0  0  0  0  0  0  0
   -0.0187    3.0000    0.0000 C   0  0  0  0  0  0  0  0  0  0  0  0
   -1.3220    3.7425    0.0000 C   0  0  0  0  0  0  0  0  0  0  0  0
    1.4600    2.7480    0.0000 C   0  0  0  0  0  0  0  0  0  0  0  0
  1  2  1  0
  2  3  2  0
  2  4  1  0
  4  5  1  0
  5  6  1  0
  1  6  1  0
  5  7  1  0
  4  7  1  0
  5  8  1  1
  8  9  1  0
  8 10  1  0
M  END
>  <cdk:Title>  (332) 
(-)-4(10)-Thujene

>  <1A2>  (332) 
N

>  <2A6>  (332) 
N

>  <2B6>  (332) 
N

>  <2C8>  (332) 
N

>  <2C9>  (332) 
N

>  <2C19>  (332) 
N

>  <2D6>  (332) 
N

>  <2E1>  (332) 
N

>  <3A4>  (332) 
N

>  <Citation>  (332) 
Nucleic Acids Res. 2018. Jan 4;46(D1):D608-17. PMID:29140435
Nucleic Acids Res. 2018 Jan 4;46(D1):D1074-D1082. PMID:29126136
Nucleic Acids Res., 45:D380-388 (2017).  PMID:27924025
Nucleic Acids Res. 2016 Jan 4;44(D1):D1202-13. PMID:26400175

>  <ROMol>  (332) 
<rdkit.Chem.rdchem.Mol object at 0x7c2905d31310>

>  <Drug_like>  (332) 
True

$$$$
(2R)-2-{[(2R)-2-amino-1-hydroxy-3-methylbutylidene]amino}-3-(C-hydroxycarbonimid
     RDKit          2D

 16 15  0  0  0  0  0  0  0  0999 V2000
    3.0539   -3.0810    0.0000 N   0  0  0  0  0  0  0  0  0  0  0  0
    4.5312   -3.3414    0.0000 C   0  0  0  0  0  0  0  0  0  0  0  0
    5.4953   -2.1924    0.0000 O   0  0  0  0  0  0  0  0  0  0  0  0
    5.0442   -4.7510    0.0000 C   0  0  0  0  0  0  0  0  0  0  0  0
    4.7004   -6.7009    0.0000 N   0  0  0  0  0  0  0  0  0  0  0  0
    7.9395   -5.2615    0.0000 C   0  0  0  0  0  0  0  0  0  0  0  0
    8.6895   -3.9625    0.0000 C   0  0  0  0  0  0  0  0  0  0  0  0
    7.6791   -6.7387    0.0000 C   0  0  0  0  0  0  0  0  0  0  0  0
    2.5409   -1.6714    0.0000 C   0  0  0  0  0  0  0  0  0  0  0  0
    1.0637   -1.4110    0.0000 C   0  0  0  0  0  0  0  0  0  0  0  0
    0.0995   -2.5600    0.0000 C   0  0  0  0  0  0  0  0  0  0  0  0
   -1.3777   -2.2996    0.0000 N   0  0  0  0  0  0  0  0  0  0  0  0
    0.6126   -3.9696    0.0000 O   0  0  0  0  0  0  0  0  0  0  0  0
    2.5409    0.3086    0.0000 C   0  0  0  0  0  0  0  0  0  0  0  0
    1.2419    1.0586    0.0000 O   0  0  0  0  0  0  0  0  0  0  0  0
    3.8400    1.0586    0.0000 O   0  0  0  0  0  0  0  0  0  0  0  0
  1  2  1  0
  2  3  2  0
  2  4  1  0
  4  5  1  0
  4  6  1  0
  6  7  1  0
  6  8  1  0
  1  9  1  0
  9 10  1  0
 10 11  1  0
 11 12  1  0
 11 13  2  0
  9 14  1  0
 14 15  1  0
 14 16  2  0
M  END
>  <cdk:Title>  (333) 
(2R)-2-{[(2R)-2-amino-1-hydroxy-3-methylbutylidene]amino}-3-(C-hydroxycarbonimidoyl)propanoic acid

>  <1A2>  (333) 
N

>  <2A6>  (333) 
N

>  <2B6>  (333) 
N

>  <2C8>  (333) 
N

>  <2C9>  (333) 
N

>  <2C19>  (333) 
N

>  <2D6>  (333) 
N

>  <2E1>  (333) 
N

>  <3A4>  (333) 
N

>  <Citation>  (333) 
Nucleic Acids Res. 2018. Jan 4;46(D1):D608-17. PMID:29140435
Nucleic Acids Res. 2018 Jan 4;46(D1):D1074-D1082. PMID:29126136
Nucleic Acids Res., 45:D380-388 (2017).  PMID:27924025
Nucleic Acids Res. 2016 Jan 4;44(D1):D1202-13. PMID:26400175

>  <ROMol>  (333) 
<rdkit.Chem.rdchem.Mol object at 0x7c2905d31380>

>  <Drug_like>  (333) 
True

$$$$
Liquid thiophthene
     RDKit          2D

  8  9  0  0  0  0  0  0  0  0999 V2000
    0.0000   -0.7500    0.0000 C   0  0  0  0  0  0  0  0  0  0  0  0
    1.4300   -1.2100    0.0000 C   0  0  0  0  0  0  0  0  0  0  0  0
    2.3100    0.0000    0.0000 C   0  0  0  0  0  0  0  0  0  0  0  0
    1.4300    1.2100    0.0000 S   0  0  0  0  0  0  0  0  0  0  0  0
    0.0000    0.7500    0.0000 C   0  0  0  0  0  0  0  0  0  0  0  0
   -1.4300    1.2100    0.0000 S   0  0  0  0  0  0  0  0  0  0  0  0
   -2.3100    0.0000    0.0000 C   0  0  0  0  0  0  0  0  0  0  0  0
   -1.4300   -1.2100    0.0000 C   0  0  0  0  0  0  0  0  0  0  0  0
  1  2  1  0
  2  3  2  0
  3  4  1  0
  4  5  1  0
  1  5  2  0
  5  6  1  0
  6  7  1  0
  7  8  2  0
  1  8  1  0
M  END
>  <cdk:Title>  (334) 
Liquid thiophthene

>  <1A2>  (334) 
N

>  <2A6>  (334) 
N

>  <2B6>  (334) 
N

>  <2C8>  (334) 
N

>  <2C9>  (334) 
N

>  <2C19>  (334) 
N

>  <2D6>  (334) 
N

>  <2E1>  (334) 
N

>  <3A4>  (334) 
N

>  <Citation>  (334) 
Nucleic Acids Res. 2018. Jan 4;46(D1):D608-17. PMID:29140435
Nucleic Acids Res. 2018 Jan 4;46(D1):D1074-D1082. PMID:29126136
Nucleic Acids Res., 45:D380-388 (2017).  PMID:27924025
Nucleic Acids Res. 2016 Jan 4;44(D1):D1202-13. PMID:26400175

>  <ROMol>  (334) 
<rdkit.Chem.rdchem.Mol object at 0x7c2905d313f0>

>  <Drug_like>  (334) 
True

$$$$
59981-63-4
     RDKit          2D

 12 13  0  0  0  0  0  0  0  0999 V2000
   -4.2999    2.4204    0.0000 O   0  0  0  0  0  0  0  0  0  0  0  0
   -2.8227    2.1596    0.0000 C   0  0  0  0  0  0  0  0  0  0  0  0
   -2.1459    0.2989    0.0000 C   0  0  0  0  0  0  0  0  0  0  0  0
   -2.1459   -1.2011    0.0000 N   0  0  0  0  0  0  0  0  0  0  0  0
   -0.8459   -1.9511    0.0000 C   0  0  0  0  0  0  0  0  0  0  0  0
    0.4541   -1.2011    0.0000 C   0  0  0  0  0  0  0  0  0  0  0  0
    1.8841   -1.6611    0.0000 N   0  0  0  0  0  0  0  0  0  0  0  0
    2.7641   -0.4511    0.0000 C   0  0  0  0  0  0  0  0  0  0  0  0
    1.8841    0.7589    0.0000 N   0  0  0  0  0  0  0  0  0  0  0  0
    0.4541    0.2989    0.0000 C   0  0  0  0  0  0  0  0  0  0  0  0
   -0.8459    1.0489    0.0000 C   0  0  0  0  0  0  0  0  0  0  0  0
   -1.8583    3.3085    0.0000 O   0  0  0  0  0  0  0  0  0  0  0  0
  1  2  1  0
  2  3  1  0
  3  4  1  0
  4  5  1  0
  5  6  1  0
  6  7  1  0
  7  8  2  0
  8  9  1  0
  9 10  1  0
  6 10  2  0
 10 11  1  0
  3 11  1  0
  2 12  2  0
M  END
>  <cdk:Title>  (335) 
59981-63-4

>  <1A2>  (335) 
N

>  <2A6>  (335) 
N

>  <2B6>  (335) 
N

>  <2C8>  (335) 
N

>  <2C9>  (335) 
N

>  <2C19>  (335) 
N

>  <2D6>  (335) 
N

>  <2E1>  (335) 
N

>  <3A4>  (335) 
N

>  <Citation>  (335) 
Nucleic Acids Res. 2018. Jan 4;46(D1):D608-17. PMID:29140435
Nucleic Acids Res. 2018 Jan 4;46(D1):D1074-D1082. PMID:29126136
Nucleic Acids Res., 45:D380-388 (2017).  PMID:27924025
Nucleic Acids Res. 2016 Jan 4;44(D1):D1202-13. PMID:26400175

>  <ROMol>  (335) 
<rdkit.Chem.rdchem.Mol object at 0x7c2905d31460>

>  <Drug_like>  (335) 
True

$$$$
2-Isopropyl-3-oxosuccinate
     RDKit          2D

 12 11  0  0  0  0  0  0  0  0999 V2000
    6.1046    1.6925    0.0000 C   0  0  0  0  0  0  0  0  0  0  0  0
    6.1046    0.1925    0.0000 C   0  0  0  0  0  0  0  0  0  0  0  0
    7.4037   -0.5575    0.0000 C   0  0  0  0  0  0  0  0  0  0  0  0
    7.4037   -2.0575    0.0000 O   0  0  0  0  0  0  0  0  0  0  0  0
    8.7027    0.1925    0.0000 O   0  0  0  0  0  0  0  0  0  0  0  0
    4.8056   -0.5575    0.0000 O   0  0  0  0  0  0  0  0  0  0  0  0
    3.5585    3.1625    0.0000 C   0  0  0  0  0  0  0  0  0  0  0  0
    2.8085    1.8635    0.0000 C   0  0  0  0  0  0  0  0  0  0  0  0
    3.8190    4.6397    0.0000 C   0  0  0  0  0  0  0  0  0  0  0  0
    7.1102    4.4552    0.0000 C   0  0  0  0  0  0  0  0  0  0  0  0
    8.5874    4.7157    0.0000 O   0  0  0  0  0  0  0  0  0  0  0  0
    6.1460    5.6043    0.0000 O   0  0  0  0  0  0  0  0  0  0  0  0
  1  2  1  0
  2  3  1  0
  3  4  1  0
  3  5  2  0
  2  6  2  0
  1  7  1  0
  7  8  1  0
  7  9  1  0
  1 10  1  0
 10 11  1  0
 10 12  2  0
M  END
>  <cdk:Title>  (336) 
2-Isopropyl-3-oxosuccinate

>  <1A2>  (336) 
N

>  <2A6>  (336) 
N

>  <2B6>  (336) 
N

>  <2C8>  (336) 
N

>  <2C9>  (336) 
N

>  <2C19>  (336) 
N

>  <2D6>  (336) 
N

>  <2E1>  (336) 
N

>  <3A4>  (336) 
N

>  <Citation>  (336) 
Nucleic Acids Res. 2018. Jan 4;46(D1):D608-17. PMID:29140435
Nucleic Acids Res. 2018 Jan 4;46(D1):D1074-D1082. PMID:29126136
Nucleic Acids Res., 45:D380-388 (2017).  PMID:27924025
Nucleic Acids Res. 2016 Jan 4;44(D1):D1202-13. PMID:26400175

>  <ROMol>  (336) 
<rdkit.Chem.rdchem.Mol object at 0x7c2905d314d0>

>  <Drug_like>  (336) 
True

$$$$
Cyclohexyl pentanoate
     RDKit          2D

 13 13  0  0  0  0  0  0  0  0999 V2000
   -1.8483   -1.4497    0.0000 C   0  0  0  0  0  0  0  0  0  0  0  0
   -0.8842   -0.3005    0.0000 C   0  0  0  0  0  0  0  0  0  0  0  0
    0.5930   -0.5608    0.0000 C   0  0  0  0  0  0  0  0  0  0  0  0
    1.8656    0.9561    0.0000 C   0  0  0  0  0  0  0  0  0  0  0  0
    3.3428    0.6958    0.0000 C   0  0  0  0  0  0  0  0  0  0  0  0
    3.8560   -0.7137    0.0000 O   0  0  0  0  0  0  0  0  0  0  0  0
    4.3069    1.8449    0.0000 O   0  0  0  0  0  0  0  0  0  0  0  0
    5.7841    1.5846    0.0000 C   0  0  0  0  0  0  0  0  0  0  0  0
    7.0841    0.8346    0.0000 C   0  0  0  0  0  0  0  0  0  0  0  0
    8.3841    1.5846    0.0000 C   0  0  0  0  0  0  0  0  0  0  0  0
    8.3841    3.0846    0.0000 C   0  0  0  0  0  0  0  0  0  0  0  0
    7.0841    3.8346    0.0000 C   0  0  0  0  0  0  0  0  0  0  0  0
    5.7841    3.0846    0.0000 C   0  0  0  0  0  0  0  0  0  0  0  0
  1  2  1  0
  2  3  1  0
  3  4  1  0
  4  5  1  0
  5  6  2  0
  5  7  1  0
  7  8  1  0
  8  9  1  0
  9 10  1  0
 10 11  1  0
 11 12  1  0
 12 13  1  0
  8 13  1  0
M  END
>  <cdk:Title>  (337) 
Cyclohexyl pentanoate

>  <1A2>  (337) 
N

>  <2A6>  (337) 
N

>  <2B6>  (337) 
N

>  <2C8>  (337) 
N

>  <2C9>  (337) 
N

>  <2C19>  (337) 
N

>  <2D6>  (337) 
N

>  <2E1>  (337) 
N

>  <3A4>  (337) 
N

>  <Citation>  (337) 
Nucleic Acids Res. 2018. Jan 4;46(D1):D608-17. PMID:29140435
Nucleic Acids Res. 2018 Jan 4;46(D1):D1074-D1082. PMID:29126136
Nucleic Acids Res., 45:D380-388 (2017).  PMID:27924025
Nucleic Acids Res. 2016 Jan 4;44(D1):D1202-13. PMID:26400175

>  <ROMol>  (337) 
<rdkit.Chem.rdchem.Mol object at 0x7c2905d31540>

>  <Drug_like>  (337) 
True

$$$$
Saccharin
     RDKit          2D

 12 13  0  0  0  0  0  0  0  0999 V2000
    2.1838    2.6365    0.0000 O   0  0  0  0  0  0  0  0  0  0  0  0
    1.7200    1.2100    0.0000 C   0  0  0  0  0  0  0  0  0  0  0  0
    2.6000   -0.0000    0.0000 N   0  0  0  0  0  0  0  0  0  0  0  0
    1.7100   -1.2100    0.0000 S   0  0  0  0  0  0  0  0  0  0  0  0
    1.0980   -2.5795    0.0000 O   0  0  0  0  0  0  0  0  0  0  0  0
    3.0063   -1.9647    0.0000 O   0  0  0  0  0  0  0  0  0  0  0  0
    0.2900   -0.7500    0.0000 C   0  0  0  0  0  0  0  0  0  0  0  0
   -1.0000   -1.5000    0.0000 C   0  0  0  0  0  0  0  0  0  0  0  0
   -2.3100   -0.7500    0.0000 C   0  0  0  0  0  0  0  0  0  0  0  0
   -2.3100    0.7500    0.0000 C   0  0  0  0  0  0  0  0  0  0  0  0
   -1.0000    1.5000    0.0000 C   0  0  0  0  0  0  0  0  0  0  0  0
    0.3000    0.7500    0.0000 C   0  0  0  0  0  0  0  0  0  0  0  0
  1  2  2  0
  2  3  1  0
  3  4  1  0
  4  5  2  0
  4  6  2  0
  4  7  1  0
  7  8  2  0
  8  9  1  0
  9 10  2  0
 10 11  1  0
 11 12  2  0
  2 12  1  0
  7 12  1  0
M  END
>  <cdk:Title>  (338) 
Saccharin

>  <1A2>  (338) 
N

>  <2A6>  (338) 
N

>  <2B6>  (338) 
N

>  <2C8>  (338) 
N

>  <2C9>  (338) 
N

>  <2C19>  (338) 
N

>  <2D6>  (338) 
N

>  <2E1>  (338) 
N

>  <3A4>  (338) 
N

>  <Citation>  (338) 
Nucleic Acids Res. 2018. Jan 4;46(D1):D608-17. PMID:29140435
Nucleic Acids Res. 2018 Jan 4;46(D1):D1074-D1082. PMID:29126136
Nucleic Acids Res., 45:D380-388 (2017).  PMID:27924025
Nucleic Acids Res. 2016 Jan 4;44(D1):D1202-13. PMID:26400175

>  <ROMol>  (338) 
<rdkit.Chem.rdchem.Mol object at 0x7c2905d315b0>

>  <Drug_like>  (338) 
True

$$$$
Methyl hexyl ether
     RDKit          2D

  8  7  0  0  0  0  0  0  0  0999 V2000
    1.7285   -0.8076    0.0000 C   0  0  0  0  0  0  0  0  0  0  0  0
    3.2285   -0.8076    0.0000 C   0  0  0  0  0  0  0  0  0  0  0  0
    3.9785   -2.1066    0.0000 C   0  0  0  0  0  0  0  0  0  0  0  0
    6.4385   -2.1066    0.0000 C   0  0  0  0  0  0  0  0  0  0  0  0
    7.1885   -3.4057    0.0000 C   0  0  0  0  0  0  0  0  0  0  0  0
    8.6885   -3.4057    0.0000 C   0  0  0  0  0  0  0  0  0  0  0  0
    9.4385   -2.1066    0.0000 O   0  0  0  0  0  0  0  0  0  0  0  0
   10.9385   -2.1066    0.0000 C   0  0  0  0  0  0  0  0  0  0  0  0
  1  2  1  0
  2  3  1  0
  3  4  1  0
  4  5  1  0
  5  6  1  0
  6  7  1  0
  7  8  1  0
M  END
>  <cdk:Title>  (339) 
Methyl hexyl ether

>  <1A2>  (339) 
N

>  <2A6>  (339) 
N

>  <2B6>  (339) 
N

>  <2C8>  (339) 
N

>  <2C9>  (339) 
N

>  <2C19>  (339) 
N

>  <2D6>  (339) 
N

>  <2E1>  (339) 
N

>  <3A4>  (339) 
N

>  <Citation>  (339) 
Nucleic Acids Res. 2018. Jan 4;46(D1):D608-17. PMID:29140435
Nucleic Acids Res. 2018 Jan 4;46(D1):D1074-D1082. PMID:29126136
Nucleic Acids Res., 45:D380-388 (2017).  PMID:27924025
Nucleic Acids Res. 2016 Jan 4;44(D1):D1202-13. PMID:26400175

>  <ROMol>  (339) 
<rdkit.Chem.rdchem.Mol object at 0x7c2905d31620>

>  <Drug_like>  (339) 
True

$$$$
Citronellyl acetate
     RDKit          2D

 14 13  0  0  0  0  0  0  0  0999 V2000
    7.7942   -0.1714    0.0000 C   0  0  0  0  0  0  0  0  0  0  0  0
    9.9247    1.0586    0.0000 C   0  0  0  0  0  0  0  0  0  0  0  0
   11.2237    0.3086    0.0000 C   0  0  0  0  0  0  0  0  0  0  0  0
   12.5227    1.0586    0.0000 C   0  0  0  0  0  0  0  0  0  0  0  0
   13.8218    0.3086    0.0000 C   0  0  0  0  0  0  0  0  0  0  0  0
   15.1208    1.0586    0.0000 C   0  0  0  0  0  0  0  0  0  0  0  0
   13.8218   -1.1914    0.0000 C   0  0  0  0  0  0  0  0  0  0  0  0
    6.0795    0.8186    0.0000 C   0  0  0  0  0  0  0  0  0  0  0  0
    3.5334   -0.6514    0.0000 C   0  0  0  0  0  0  0  0  0  0  0  0
    2.2343    0.0986    0.0000 O   0  0  0  0  0  0  0  0  0  0  0  0
    0.9353   -0.6514    0.0000 C   0  0  0  0  0  0  0  0  0  0  0  0
   -0.3637    0.0986    0.0000 C   0  0  0  0  0  0  0  0  0  0  0  0
    0.9353   -2.1514    0.0000 O   0  0  0  0  0  0  0  0  0  0  0  0
    6.8300   -1.3205    0.0000 C   0  0  0  0  0  0  0  0  0  0  0  0
  1  2  1  0
  2  3  1  0
  3  4  1  0
  4  5  2  0
  5  6  1  0
  5  7  1  0
  1  8  1  0
  8  9  1  0
  9 10  1  0
 10 11  1  0
 11 12  1  0
 11 13  2  0
  1 14  1  0
M  END
>  <cdk:Title>  (340) 
Citronellyl acetate

>  <1A2>  (340) 
N

>  <2A6>  (340) 
N

>  <2B6>  (340) 
N

>  <2C8>  (340) 
N

>  <2C9>  (340) 
N

>  <2C19>  (340) 
N

>  <2D6>  (340) 
N

>  <2E1>  (340) 
N

>  <3A4>  (340) 
N

>  <Citation>  (340) 
Nucleic Acids Res. 2018. Jan 4;46(D1):D608-17. PMID:29140435
Nucleic Acids Res. 2018 Jan 4;46(D1):D1074-D1082. PMID:29126136
Nucleic Acids Res., 45:D380-388 (2017).  PMID:27924025
Nucleic Acids Res. 2016 Jan 4;44(D1):D1202-13. PMID:26400175

>  <ROMol>  (340) 
<rdkit.Chem.rdchem.Mol object at 0x7c2905d31700>

>  <Drug_like>  (340) 
True

$$$$
(S)-alpha-Phellandrene
     RDKit          2D

 10 10  0  0  0  0  0  0  0  0999 V2000
    0.7886   -3.9476    0.0000 C   0  0  0  0  0  0  0  0  0  0  0  0
    0.4863   -2.4800    0.0000 C   0  0  0  0  0  0  0  0  0  0  0  0
   -0.9406   -2.0871    0.0000 C   0  0  0  0  0  0  0  0  0  0  0  0
   -1.9996   -3.0764    0.0000 C   0  0  0  0  0  0  0  0  0  0  0  0
   -3.4290   -2.6214    0.0000 C   0  0  0  0  0  0  0  0  0  0  0  0
   -1.6974   -4.5439    0.0000 C   0  0  0  0  0  0  0  0  0  0  0  0
   -0.2704   -4.9368    0.0000 C   0  0  0  0  0  0  0  0  0  0  0  0
    3.5124   -2.8410    0.0000 C   0  0  0  0  0  0  0  0  0  0  0  0
    3.7842   -0.8798    0.0000 C   0  0  0  0  0  0  0  0  0  0  0  0
    4.0284   -5.2463    0.0000 C   0  0  0  0  0  0  0  0  0  0  0  0
  1  2  1  0
  2  3  1  0
  3  4  2  0
  4  5  1  0
  4  6  1  0
  6  7  2  0
  1  7  1  0
  1  8  1  0
  8  9  1  0
  8 10  1  0
M  END
>  <cdk:Title>  (341) 
(S)-alpha-Phellandrene

>  <1A2>  (341) 
N

>  <2A6>  (341) 
N

>  <2B6>  (341) 
N

>  <2C8>  (341) 
N

>  <2C9>  (341) 
N

>  <2C19>  (341) 
N

>  <2D6>  (341) 
N

>  <2E1>  (341) 
N

>  <3A4>  (341) 
N

>  <Citation>  (341) 
Nucleic Acids Res. 2018. Jan 4;46(D1):D608-17. PMID:29140435
Nucleic Acids Res. 2018 Jan 4;46(D1):D1074-D1082. PMID:29126136
Nucleic Acids Res., 45:D380-388 (2017).  PMID:27924025
Nucleic Acids Res. 2016 Jan 4;44(D1):D1202-13. PMID:26400175

>  <ROMol>  (341) 
<rdkit.Chem.rdchem.Mol object at 0x7c2905d31770>

>  <Drug_like>  (341) 
True

$$$$
(S)-7-Hydroxytetrahydroharman
     RDKit          2D

 15 17  0  0  0  0  0  0  0  0999 V2000
    3.7300    0.1100    0.0000 N   0  0  0  0  0  0  0  0  0  0  0  0
    3.3000    1.4900    0.0000 C   0  0  0  0  0  0  0  0  0  0  0  0
    1.8800    1.7400    0.0000 C   0  0  0  0  0  0  0  0  0  0  0  0
    0.8300    0.6700    0.0000 C   0  0  0  0  0  0  0  0  0  0  0  0
   -0.5700    0.6700    0.0000 C   0  0  0  0  0  0  0  0  0  0  0  0
   -1.6400    1.7700    0.0000 C   0  0  0  0  0  0  0  0  0  0  0  0
   -3.0700    1.4500    0.0000 C   0  0  0  0  0  0  0  0  0  0  0  0
   -3.5200   -0.0000    0.0000 C   0  0  0  0  0  0  0  0  0  0  0  0
   -2.5400   -1.1000    0.0000 C   0  0  0  0  0  0  0  0  0  0  0  0
   -1.0200   -0.7800    0.0000 C   0  0  0  0  0  0  0  0  0  0  0  0
    0.1300   -1.5700    0.0000 N   0  0  0  0  0  0  0  0  0  0  0  0
    1.3800   -0.7300    0.0000 C   0  0  0  0  0  0  0  0  0  0  0  0
    2.7900   -1.0000    0.0000 C   0  0  0  0  0  0  0  0  0  0  0  0
    2.2611   -2.4037    0.0000 C   0  0  0  0  0  0  0  0  0  0  0  0
   -4.9860   -0.3177    0.0000 O   0  0  0  0  0  0  0  0  0  0  0  0
  1  2  1  0
  2  3  1  0
  3  4  1  0
  4  5  1  0
  5  6  2  0
  6  7  1  0
  7  8  2  0
  8  9  1  0
  9 10  2  0
  5 10  1  0
 10 11  1  0
 11 12  1  0
  4 12  2  0
 12 13  1  0
  1 13  1  0
 13 14  1  0
  8 15  1  0
M  END
>  <cdk:Title>  (342) 
(S)-7-Hydroxytetrahydroharman

>  <1A2>  (342) 
N

>  <2A6>  (342) 
N

>  <2B6>  (342) 
N

>  <2C8>  (342) 
N

>  <2C9>  (342) 
N

>  <2C19>  (342) 
N

>  <2D6>  (342) 
N

>  <2E1>  (342) 
N

>  <3A4>  (342) 
N

>  <Citation>  (342) 
Nucleic Acids Res. 2018. Jan 4;46(D1):D608-17. PMID:29140435
Nucleic Acids Res. 2018 Jan 4;46(D1):D1074-D1082. PMID:29126136
Nucleic Acids Res., 45:D380-388 (2017).  PMID:27924025
Nucleic Acids Res. 2016 Jan 4;44(D1):D1202-13. PMID:26400175

>  <ROMol>  (342) 
<rdkit.Chem.rdchem.Mol object at 0x7c2905d31850>

>  <Drug_like>  (342) 
True

$$$$
Ercalcitriol
     RDKit          2D

 31 33  0  0  0  0  0  0  0  0999 V2000
   -8.9943   -9.6397    0.0000 O   0  0  0  0  0  0  0  0  0  0  0  0
   -7.5170   -9.9000    0.0000 C   0  0  0  0  0  0  0  0  0  0  0  0
   -7.5170   -8.4000    0.0000 C   0  0  0  0  0  0  0  0  0  0  0  0
   -6.2170   -7.6500    0.0000 C   0  0  0  0  0  0  0  0  0  0  0  0
   -6.2170   -5.1900    0.0000 C   0  0  0  0  0  0  0  0  0  0  0  0
   -4.9180   -4.4400    0.0000 C   0  0  0  0  0  0  0  0  0  0  0  0
   -4.9180   -2.9400    0.0000 C   0  0  0  0  0  0  0  0  0  0  0  0
   -3.6180   -2.1900    0.0000 C   0  0  0  0  0  0  0  0  0  0  0  0
   -3.6180   -0.6900    0.0000 C   0  0  0  0  0  0  0  0  0  0  0  0
   -2.1880   -0.2300    0.0000 C   0  0  0  0  0  0  0  0  0  0  0  0
   -1.3080   -1.4400    0.0000 C   0  0  0  0  0  0  0  0  0  0  0  0
   -2.1880   -2.6500    0.0000 C   0  0  0  0  0  0  0  0  0  0  0  0
    0.3591    1.2384    0.0000 C   0  0  0  0  0  0  0  0  0  0  0  0
    1.3628   -1.5250    0.0000 C   0  0  0  0  0  0  0  0  0  0  0  0
    0.3601    2.7384    0.0000 C   0  0  0  0  0  0  0  0  0  0  0  0
    1.6596    3.4875    0.0000 C   0  0  0  0  0  0  0  0  0  0  0  0
    1.6606    4.9875    0.0000 C   0  0  0  0  0  0  0  0  0  0  0  0
    2.9601    5.7366    0.0000 C   0  0  0  0  0  0  0  0  0  0  0  0
    3.4722    4.3268    0.0000 O   0  0  0  0  0  0  0  0  0  0  0  0
    2.9621    8.6766    0.0000 C   0  0  0  0  0  0  0  0  0  0  0  0
    5.3830    6.1622    0.0000 C   0  0  0  0  0  0  0  0  0  0  0  0
    1.1485    6.3974    0.0000 C   0  0  0  0  0  0  0  0  0  0  0  0
   -4.9180    0.0600    0.0000 C   0  0  0  0  0  0  0  0  0  0  0  0
   -6.2180   -0.6900    0.0000 C   0  0  0  0  0  0  0  0  0  0  0  0
   -6.2180   -2.1900    0.0000 C   0  0  0  0  0  0  0  0  0  0  0  0
   -3.3069    2.2335    0.0000 C   0  0  0  0  0  0  0  0  0  0  0  0
   -4.9170   -8.4000    0.0000 C   0  0  0  0  0  0  0  0  0  0  0  0
   -4.9170   -9.9000    0.0000 C   0  0  0  0  0  0  0  0  0  0  0  0
   -4.4043  -11.3096    0.0000 O   0  0  0  0  0  0  0  0  0  0  0  0
   -6.2170  -10.6500    0.0000 C   0  0  0  0  0  0  0  0  0  0  0  0
   -3.6181   -7.6498    0.0000 C   0  0  0  0  0  0  0  0  0  0  0  0
  1  2  1  0
  2  3  1  0
  3  4  1  0
  4  5  2  0
  5  6  1  0
  6  7  2  0
  7  8  1  0
  8  9  1  0
  9 10  1  0
 10 11  1  0
 11 12  1  0
  8 12  1  0
 10 13  1  0
 13 14  1  0
 13 15  1  0
 15 16  2  0
 16 17  1  0
 17 18  1  0
 18 19  1  0
 18 20  1  0
 18 21  1  0
 17 22  1  0
  9 23  1  0
 23 24  1  0
 24 25  1  0
  7 25  1  0
  9 26  1  1
  4 27  1  0
 27 28  1  0
 28 29  1  0
 28 30  1  0
  2 30  1  0
 27 31  2  0
M  END
>  <cdk:Title>  (343) 
Ercalcitriol

>  <1A2>  (343) 
N

>  <2A6>  (343) 
N

>  <2B6>  (343) 
N

>  <2C8>  (343) 
N

>  <2C9>  (343) 
N

>  <2C19>  (343) 
N

>  <2D6>  (343) 
N

>  <2E1>  (343) 
N

>  <3A4>  (343) 
N

>  <Citation>  (343) 
Nucleic Acids Res. 2018. Jan 4;46(D1):D608-17. PMID:29140435
Nucleic Acids Res. 2018 Jan 4;46(D1):D1074-D1082. PMID:29126136
Nucleic Acids Res., 45:D380-388 (2017).  PMID:27924025
Nucleic Acids Res. 2016 Jan 4;44(D1):D1202-13. PMID:26400175

>  <ROMol>  (343) 
<rdkit.Chem.rdchem.Mol object at 0x7c2905d318c0>

>  <Drug_like>  (343) 
True

$$$$
5-Methoxycanthin-6-one
     RDKit          2D

 19 22  0  0  0  0  0  0  0  0999 V2000
    1.9850   -5.7280    0.0000 C   0  0  0  0  0  0  0  0  0  0  0  0
    0.6907   -4.9700    0.0000 O   0  0  0  0  0  0  0  0  0  0  0  0
    0.7000   -3.4700    0.0000 C   0  0  0  0  0  0  0  0  0  0  0  0
    2.0100   -2.7300    0.0000 C   0  0  0  0  0  0  0  0  0  0  0  0
    2.0000   -1.2300    0.0000 C   0  0  0  0  0  0  0  0  0  0  0  0
    0.7100   -0.4800    0.0000 C   0  0  0  0  0  0  0  0  0  0  0  0
    0.6800    0.9800    0.0000 C   0  0  0  0  0  0  0  0  0  0  0  0
    2.0000    1.7800    0.0000 C   0  0  0  0  0  0  0  0  0  0  0  0
    3.3100    1.0400    0.0000 C   0  0  0  0  0  0  0  0  0  0  0  0
    3.3100   -0.4800    0.0000 N   0  0  0  0  0  0  0  0  0  0  0  0
   -0.7600    1.3600    0.0000 C   0  0  0  0  0  0  0  0  0  0  0  0
   -1.4800    2.6700    0.0000 C   0  0  0  0  0  0  0  0  0  0  0  0
   -2.9800    2.7100    0.0000 C   0  0  0  0  0  0  0  0  0  0  0  0
   -3.7600    1.4200    0.0000 C   0  0  0  0  0  0  0  0  0  0  0  0
   -3.0400    0.1100    0.0000 C   0  0  0  0  0  0  0  0  0  0  0  0
   -1.5400    0.0800    0.0000 C   0  0  0  0  0  0  0  0  0  0  0  0
   -0.5600   -1.0500    0.0000 N   0  0  0  0  0  0  0  0  0  0  0  0
   -0.5900   -2.7200    0.0000 C   0  0  0  0  0  0  0  0  0  0  0  0
   -1.8968   -3.4563    0.0000 O   0  0  0  0  0  0  0  0  0  0  0  0
  1  2  1  0
  2  3  1  0
  3  4  2  0
  4  5  1  0
  5  6  2  0
  6  7  1  0
  7  8  2  0
  8  9  1  0
  9 10  2  0
  5 10  1  0
  7 11  1  0
 11 12  2  0
 12 13  1  0
 13 14  2  0
 14 15  1  0
 15 16  2  0
 11 16  1  0
 16 17  1  0
  6 17  1  0
 17 18  1  0
  3 18  1  0
 18 19  2  0
M  END
>  <cdk:Title>  (344) 
5-Methoxycanthin-6-one

>  <1A2>  (344) 
N

>  <2A6>  (344) 
N

>  <2B6>  (344) 
N

>  <2C8>  (344) 
N

>  <2C9>  (344) 
N

>  <2C19>  (344) 
N

>  <2D6>  (344) 
N

>  <2E1>  (344) 
N

>  <3A4>  (344) 
N

>  <Citation>  (344) 
Nucleic Acids Res. 2018. Jan 4;46(D1):D608-17. PMID:29140435
Nucleic Acids Res. 2018 Jan 4;46(D1):D1074-D1082. PMID:29126136
Nucleic Acids Res., 45:D380-388 (2017).  PMID:27924025
Nucleic Acids Res. 2016 Jan 4;44(D1):D1202-13. PMID:26400175

>  <ROMol>  (344) 
<rdkit.Chem.rdchem.Mol object at 0x7c2905d31930>

>  <Drug_like>  (344) 
True

$$$$
8-Oxohexadecanoic acid
     RDKit          2D

 19 18  0  0  0  0  0  0  0  0999 V2000
   23.1065    5.4911    0.0000 C   0  0  0  0  0  0  0  0  0  0  0  0
   21.6065    5.4911    0.0000 C   0  0  0  0  0  0  0  0  0  0  0  0
   20.8565    4.1920    0.0000 C   0  0  0  0  0  0  0  0  0  0  0  0
   18.8765    4.1920    0.0000 C   0  0  0  0  0  0  0  0  0  0  0  0
   17.8865    2.4773    0.0000 C   0  0  0  0  0  0  0  0  0  0  0  0
   15.9065    2.4773    0.0000 C   0  0  0  0  0  0  0  0  0  0  0  0
   14.6765    0.3469    0.0000 C   0  0  0  0  0  0  0  0  0  0  0  0
   13.1765    0.3469    0.0000 C   0  0  0  0  0  0  0  0  0  0  0  0
   12.1865   -1.3678    0.0000 C   0  0  0  0  0  0  0  0  0  0  0  0
   10.6865   -1.3678    0.0000 C   0  0  0  0  0  0  0  0  0  0  0  0
    9.9365   -2.6669    0.0000 C   0  0  0  0  0  0  0  0  0  0  0  0
    7.4765   -2.6669    0.0000 C   0  0  0  0  0  0  0  0  0  0  0  0
    6.7265   -3.9659    0.0000 C   0  0  0  0  0  0  0  0  0  0  0  0
    4.2665   -3.9659    0.0000 C   0  0  0  0  0  0  0  0  0  0  0  0
    3.5165   -5.2650    0.0000 C   0  0  0  0  0  0  0  0  0  0  0  0
    2.0165   -5.2650    0.0000 C   0  0  0  0  0  0  0  0  0  0  0  0
    1.2665   -3.9659    0.0000 O   0  0  0  0  0  0  0  0  0  0  0  0
    1.2665   -6.5640    0.0000 O   0  0  0  0  0  0  0  0  0  0  0  0
   12.9365   -2.6669    0.0000 O   0  0  0  0  0  0  0  0  0  0  0  0
  1  2  1  0
  2  3  1  0
  3  4  1  0
  4  5  1  0
  5  6  1  0
  6  7  1  0
  7  8  1  0
  8  9  1  0
  9 10  1  0
 10 11  1  0
 11 12  1  0
 12 13  1  0
 13 14  1  0
 14 15  1  0
 15 16  1  0
 16 17  2  0
 16 18  1  0
  9 19  2  0
M  END
>  <cdk:Title>  (345) 
8-Oxohexadecanoic acid

>  <1A2>  (345) 
N

>  <2A6>  (345) 
N

>  <2B6>  (345) 
N

>  <2C8>  (345) 
N

>  <2C9>  (345) 
N

>  <2C19>  (345) 
N

>  <2D6>  (345) 
N

>  <2E1>  (345) 
N

>  <3A4>  (345) 
N

>  <Citation>  (345) 
Nucleic Acids Res. 2018. Jan 4;46(D1):D608-17. PMID:29140435
Nucleic Acids Res. 2018 Jan 4;46(D1):D1074-D1082. PMID:29126136
Nucleic Acids Res., 45:D380-388 (2017).  PMID:27924025
Nucleic Acids Res. 2016 Jan 4;44(D1):D1202-13. PMID:26400175

>  <ROMol>  (345) 
<rdkit.Chem.rdchem.Mol object at 0x7c2905d31a10>

>  <Drug_like>  (345) 
True

$$$$
5a-Pregnane-3_20-dione
     RDKit          2D

 23 26  0  0  0  0  0  0  0  0999 V2000
   -2.7564   -4.7353    0.0000 C   0  0  0  0  0  0  0  0  0  0  0  0
   -2.7564   -6.2653    0.0000 C   0  0  0  0  0  0  0  0  0  0  0  0
   -1.4464   -7.0153    0.0000 C   0  0  0  0  0  0  0  0  0  0  0  0
   -0.1764   -6.2653    0.0000 C   0  0  0  0  0  0  0  0  0  0  0  0
   -0.1764   -4.7353    0.0000 C   0  0  0  0  0  0  0  0  0  0  0  0
   -1.4464   -4.0153    0.0000 C   0  0  0  0  0  0  0  0  0  0  0  0
    0.1771   -2.7871    0.0000 C   0  0  0  0  0  0  0  0  0  0  0  0
    1.1236   -4.0153    0.0000 C   0  0  0  0  0  0  0  0  0  0  0  0
    2.4536   -4.7353    0.0000 C   0  0  0  0  0  0  0  0  0  0  0  0
    2.4536   -6.2653    0.0000 C   0  0  0  0  0  0  0  0  0  0  0  0
    1.1236   -7.0153    0.0000 C   0  0  0  0  0  0  0  0  0  0  0  0
    3.7236   -4.0153    0.0000 C   0  0  0  0  0  0  0  0  0  0  0  0
    3.7236   -2.5453    0.0000 C   0  0  0  0  0  0  0  0  0  0  0  0
    2.4536   -1.7853    0.0000 C   0  0  0  0  0  0  0  0  0  0  0  0
    1.1236   -2.5453    0.0000 C   0  0  0  0  0  0  0  0  0  0  0  0
    4.0580    0.3756    0.0000 C   0  0  0  0  0  0  0  0  0  0  0  0
    5.1536   -2.0853    0.0000 C   0  0  0  0  0  0  0  0  0  0  0  0
    5.9936   -3.2953    0.0000 C   0  0  0  0  0  0  0  0  0  0  0  0
    5.1536   -4.4853    0.0000 C   0  0  0  0  0  0  0  0  0  0  0  0
    6.8832   -1.1217    0.0000 C   0  0  0  0  0  0  0  0  0  0  0  0
    6.9062    0.3782    0.0000 O   0  0  0  0  0  0  0  0  0  0  0  0
    8.1707   -1.8915    0.0000 C   0  0  0  0  0  0  0  0  0  0  0  0
   -4.0541   -7.0177    0.0000 O   0  0  0  0  0  0  0  0  0  0  0  0
  1  2  1  0
  2  3  1  0
  3  4  1  0
  4  5  1  0
  5  6  1  0
  1  6  1  0
  5  7  1  1
  5  8  1  0
  8  9  1  0
  9 10  1  0
 10 11  1  0
  4 11  1  0
  9 12  1  0
 12 13  1  0
 13 14  1  0
 14 15  1  0
  8 15  1  0
 13 16  1  1
 13 17  1  0
 17 18  1  0
 18 19  1  0
 12 19  1  0
 17 20  1  0
 20 21  2  0
 20 22  1  0
  2 23  2  0
M  END
>  <cdk:Title>  (346) 
5a-Pregnane-3_20-dione

>  <1A2>  (346) 
N

>  <2A6>  (346) 
N

>  <2B6>  (346) 
N

>  <2C8>  (346) 
N

>  <2C9>  (346) 
N

>  <2C19>  (346) 
N

>  <2D6>  (346) 
N

>  <2E1>  (346) 
N

>  <3A4>  (346) 
N

>  <Citation>  (346) 
Nucleic Acids Res. 2018. Jan 4;46(D1):D608-17. PMID:29140435
Nucleic Acids Res. 2018 Jan 4;46(D1):D1074-D1082. PMID:29126136
Nucleic Acids Res., 45:D380-388 (2017).  PMID:27924025
Nucleic Acids Res. 2016 Jan 4;44(D1):D1202-13. PMID:26400175

>  <ROMol>  (346) 
<rdkit.Chem.rdchem.Mol object at 0x7c2905d31a80>

>  <Drug_like>  (346) 
True

$$$$
2-Hepten-4-one
     RDKit          2D

  8  7  0  0  0  0  0  0  0  0999 V2000
    1.1209    0.0000    0.0000 C   0  0  0  0  0  0  0  0  0  0  0  0
    2.4199   -0.7500    0.0000 C   0  0  0  0  0  0  0  0  0  0  0  0
    3.7189   -0.0000    0.0000 C   0  0  0  0  0  0  0  0  0  0  0  0
    5.0180   -0.7500    0.0000 C   0  0  0  0  0  0  0  0  0  0  0  0
    6.3170   -0.0000    0.0000 C   0  0  0  0  0  0  0  0  0  0  0  0
    7.6161   -0.7500    0.0000 C   0  0  0  0  0  0  0  0  0  0  0  0
    8.9151   -0.0000    0.0000 C   0  0  0  0  0  0  0  0  0  0  0  0
    5.0180   -2.2500    0.0000 O   0  0  0  0  0  0  0  0  0  0  0  0
  1  2  1  0
  2  3  2  0
  3  4  1  0
  4  5  1  0
  5  6  1  0
  6  7  1  0
  4  8  2  0
M  END
>  <cdk:Title>  (347) 
2-Hepten-4-one

>  <1A2>  (347) 
N

>  <2A6>  (347) 
N

>  <2B6>  (347) 
N

>  <2C8>  (347) 
N

>  <2C9>  (347) 
N

>  <2C19>  (347) 
N

>  <2D6>  (347) 
N

>  <2E1>  (347) 
N

>  <3A4>  (347) 
N

>  <Citation>  (347) 
Nucleic Acids Res. 2018. Jan 4;46(D1):D608-17. PMID:29140435
Nucleic Acids Res. 2018 Jan 4;46(D1):D1074-D1082. PMID:29126136
Nucleic Acids Res., 45:D380-388 (2017).  PMID:27924025
Nucleic Acids Res. 2016 Jan 4;44(D1):D1202-13. PMID:26400175

>  <ROMol>  (347) 
<rdkit.Chem.rdchem.Mol object at 0x7c2905d31af0>

>  <Drug_like>  (347) 
True

$$$$
4-Methyl-1-phenyl-2-pentanone
     RDKit          2D

 13 13  0  0  0  0  0  0  0  0999 V2000
   -5.6389    1.9273    0.0000 C   0  0  0  0  0  0  0  0  0  0  0  0
   -4.6747    3.0763    0.0000 C   0  0  0  0  0  0  0  0  0  0  0  0
   -6.3894    4.0663    0.0000 C   0  0  0  0  0  0  0  0  0  0  0  0
   -3.3756    3.8263    0.0000 C   0  0  0  0  0  0  0  0  0  0  0  0
   -1.6609    2.8363    0.0000 C   0  0  0  0  0  0  0  0  0  0  0  0
   -0.3619    3.5863    0.0000 C   0  0  0  0  0  0  0  0  0  0  0  0
    0.9372    2.8363    0.0000 C   0  0  0  0  0  0  0  0  0  0  0  0
    2.2367    3.5872    0.0000 C   0  0  0  0  0  0  0  0  0  0  0  0
    3.5357    2.8372    0.0000 C   0  0  0  0  0  0  0  0  0  0  0  0
    3.5352    1.3363    0.0000 C   0  0  0  0  0  0  0  0  0  0  0  0
    2.2357    0.5855    0.0000 C   0  0  0  0  0  0  0  0  0  0  0  0
    0.9367    1.3355    0.0000 C   0  0  0  0  0  0  0  0  0  0  0  0
   -1.6609    1.3363    0.0000 O   0  0  0  0  0  0  0  0  0  0  0  0
  1  2  1  0
  2  3  1  0
  2  4  1  0
  4  5  1  0
  5  6  1  0
  6  7  1  0
  7  8  2  0
  8  9  1  0
  9 10  2  0
 10 11  1  0
 11 12  2  0
  7 12  1  0
  5 13  2  0
M  END
>  <cdk:Title>  (348) 
4-Methyl-1-phenyl-2-pentanone

>  <1A2>  (348) 
N

>  <2A6>  (348) 
N

>  <2B6>  (348) 
N

>  <2C8>  (348) 
N

>  <2C9>  (348) 
N

>  <2C19>  (348) 
N

>  <2D6>  (348) 
N

>  <2E1>  (348) 
N

>  <3A4>  (348) 
N

>  <Citation>  (348) 
Nucleic Acids Res. 2018. Jan 4;46(D1):D608-17. PMID:29140435
Nucleic Acids Res. 2018 Jan 4;46(D1):D1074-D1082. PMID:29126136
Nucleic Acids Res., 45:D380-388 (2017).  PMID:27924025
Nucleic Acids Res. 2016 Jan 4;44(D1):D1202-13. PMID:26400175

>  <ROMol>  (348) 
<rdkit.Chem.rdchem.Mol object at 0x7c2905d31b60>

>  <Drug_like>  (348) 
True

$$$$
Allyl crotonate
     RDKit          2D

  9  8  0  0  0  0  0  0  0  0999 V2000
   10.3923   -0.0000    0.0000 C   0  0  0  0  0  0  0  0  0  0  0  0
    9.0933   -0.7500    0.0000 C   0  0  0  0  0  0  0  0  0  0  0  0
    7.7942   -0.0000    0.0000 C   0  0  0  0  0  0  0  0  0  0  0  0
    7.7942    1.5000    0.0000 C   0  0  0  0  0  0  0  0  0  0  0  0
    9.0933    2.2500    0.0000 O   0  0  0  0  0  0  0  0  0  0  0  0
    6.4952    2.2500    0.0000 O   0  0  0  0  0  0  0  0  0  0  0  0
    6.4952    3.7500    0.0000 C   0  0  0  0  0  0  0  0  0  0  0  0
    5.1962    4.5000    0.0000 C   0  0  0  0  0  0  0  0  0  0  0  0
    5.1962    6.0000    0.0000 C   0  0  0  0  0  0  0  0  0  0  0  0
  1  2  1  0
  2  3  2  0
  3  4  1  0
  4  5  2  0
  4  6  1  0
  6  7  1  0
  7  8  1  0
  8  9  2  0
M  END
>  <cdk:Title>  (349) 
Allyl crotonate

>  <1A2>  (349) 
N

>  <2A6>  (349) 
N

>  <2B6>  (349) 
N

>  <2C8>  (349) 
N

>  <2C9>  (349) 
N

>  <2C19>  (349) 
N

>  <2D6>  (349) 
N

>  <2E1>  (349) 
N

>  <3A4>  (349) 
N

>  <Citation>  (349) 
Nucleic Acids Res. 2018. Jan 4;46(D1):D608-17. PMID:29140435
Nucleic Acids Res. 2018 Jan 4;46(D1):D1074-D1082. PMID:29126136
Nucleic Acids Res., 45:D380-388 (2017).  PMID:27924025
Nucleic Acids Res. 2016 Jan 4;44(D1):D1202-13. PMID:26400175

>  <ROMol>  (349) 
<rdkit.Chem.rdchem.Mol object at 0x7c2905d31bd0>

>  <Drug_like>  (349) 
True

$$$$
1_4-Dithiothreitol
     RDKit          2D

  8  7  0  0  0  0  0  0  0  0999 V2000
    8.2099   -0.2400    0.0000 S   0  0  0  0  0  0  0  0  0  0  0  0
    6.9109   -0.9900    0.0000 C   0  0  0  0  0  0  0  0  0  0  0  0
    5.6118   -0.2400    0.0000 C   0  0  0  0  0  0  0  0  0  0  0  0
    6.5760    0.9091    0.0000 O   0  0  0  0  0  0  0  0  0  0  0  0
    3.8971   -1.2300    0.0000 C   0  0  0  0  0  0  0  0  0  0  0  0
    2.1824   -0.2400    0.0000 C   0  0  0  0  0  0  0  0  0  0  0  0
    0.8833   -0.9900    0.0000 S   0  0  0  0  0  0  0  0  0  0  0  0
    2.9329   -2.3791    0.0000 O   0  0  0  0  0  0  0  0  0  0  0  0
  1  2  1  0
  2  3  1  0
  3  4  1  0
  3  5  1  0
  5  6  1  0
  6  7  1  0
  5  8  1  0
M  END
>  <cdk:Title>  (350) 
1_4-Dithiothreitol

>  <1A2>  (350) 
N

>  <2A6>  (350) 
N

>  <2B6>  (350) 
N

>  <2C8>  (350) 
N

>  <2C9>  (350) 
N

>  <2C19>  (350) 
N

>  <2D6>  (350) 
N

>  <2E1>  (350) 
N

>  <3A4>  (350) 
N

>  <Citation>  (350) 
Nucleic Acids Res. 2018. Jan 4;46(D1):D608-17. PMID:29140435
Nucleic Acids Res. 2018 Jan 4;46(D1):D1074-D1082. PMID:29126136
Nucleic Acids Res., 45:D380-388 (2017).  PMID:27924025
Nucleic Acids Res. 2016 Jan 4;44(D1):D1202-13. PMID:26400175

>  <ROMol>  (350) 
<rdkit.Chem.rdchem.Mol object at 0x7c2905d31c40>

>  <Drug_like>  (350) 
True

$$$$
6-Sulfatoxymelatonin
     RDKit          2D

 22 23  0  0  0  0  0  0  0  0999 V2000
    6.0510    6.1082    0.0000 C   0  0  0  0  0  0  0  0  0  0  0  0
    5.5858    4.6822    0.0000 C   0  0  0  0  0  0  0  0  0  0  0  0
    4.1182    4.3721    0.0000 N   0  0  0  0  0  0  0  0  0  0  0  0
    3.1158    5.4880    0.0000 C   0  0  0  0  0  0  0  0  0  0  0  0
    1.6482    5.1780    0.0000 C   0  0  0  0  0  0  0  0  0  0  0  0
    0.6459    6.2939    0.0000 C   0  0  0  0  0  0  0  0  0  0  0  0
    0.9613    7.7565    0.0000 C   0  0  0  0  0  0  0  0  0  0  0  0
   -0.3330    8.5071    0.0000 N   0  0  0  0  0  0  0  0  0  0  0  0
   -1.4547    7.5080    0.0000 C   0  0  0  0  0  0  0  0  0  0  0  0
   -2.9470    7.6681    0.0000 C   0  0  0  0  0  0  0  0  0  0  0  0
   -3.8325    6.4563    0.0000 C   0  0  0  0  0  0  0  0  0  0  0  0
   -3.2258    5.0845    0.0000 C   0  0  0  0  0  0  0  0  0  0  0  0
   -1.7335    4.9244    0.0000 C   0  0  0  0  0  0  0  0  0  0  0  0
   -0.8480    6.1362    0.0000 C   0  0  0  0  0  0  0  0  0  0  0  0
   -4.1102    3.8730    0.0000 O   0  0  0  0  0  0  0  0  0  0  0  0
   -5.6016    4.0332    0.0000 C   0  0  0  0  0  0  0  0  0  0  0  0
   -5.3239    6.6170    0.0000 O   0  0  0  0  0  0  0  0  0  0  0  0
   -5.9304    7.9889    0.0000 S   0  0  0  0  0  0  0  0  0  0  0  0
   -7.4218    8.1496    0.0000 O   0  0  0  0  0  0  0  0  0  0  0  0
   -6.0311    9.4856    0.0000 O   0  0  0  0  0  0  0  0  0  0  0  0
   -4.4740    8.3480    0.0000 O   0  0  0  0  0  0  0  0  0  0  0  0
    6.5881    3.5662    0.0000 O   0  0  0  0  0  0  0  0  0  0  0  0
  1  2  1  0
  2  3  2  0
  3  4  1  0
  4  5  1  0
  5  6  1  0
  6  7  2  0
  7  8  1  0
  8  9  1  0
  9 10  2  0
 10 11  1  0
 11 12  2  0
 12 13  1  0
 13 14  2  0
  6 14  1  0
  9 14  1  0
 12 15  1  0
 15 16  1  0
 11 17  1  0
 17 18  1  0
 18 19  1  0
 18 20  2  0
 18 21  2  0
  2 22  1  0
M  END
>  <cdk:Title>  (351) 
6-Sulfatoxymelatonin

>  <1A2>  (351) 
N

>  <2A6>  (351) 
N

>  <2B6>  (351) 
N

>  <2C8>  (351) 
N

>  <2C9>  (351) 
N

>  <2C19>  (351) 
N

>  <2D6>  (351) 
N

>  <2E1>  (351) 
N

>  <3A4>  (351) 
N

>  <Citation>  (351) 
Nucleic Acids Res. 2018. Jan 4;46(D1):D608-17. PMID:29140435
Nucleic Acids Res. 2018 Jan 4;46(D1):D1074-D1082. PMID:29126136
Nucleic Acids Res., 45:D380-388 (2017).  PMID:27924025
Nucleic Acids Res. 2016 Jan 4;44(D1):D1202-13. PMID:26400175

>  <ROMol>  (351) 
<rdkit.Chem.rdchem.Mol object at 0x7c2905d31cb0>

>  <Drug_like>  (351) 
True

$$$$
AC1liaca
     RDKit          2D

 19 21  0  0  0  0  0  0  0  0999 V2000
   -4.3964   -0.6998    0.0000 C   0  0  0  0  0  0  0  0  0  0  0  0
   -5.2764    0.5102    0.0000 C   0  0  0  0  0  0  0  0  0  0  0  0
   -4.3964    1.7302    0.0000 C   0  0  0  0  0  0  0  0  0  0  0  0
   -2.9764    1.2602    0.0000 C   0  0  0  0  0  0  0  0  0  0  0  0
   -2.9764   -0.2398    0.0000 C   0  0  0  0  0  0  0  0  0  0  0  0
   -1.7964   -1.1698    0.0000 C   0  0  0  0  0  0  0  0  0  0  0  0
   -0.3364   -0.8398    0.0000 C   0  0  0  0  0  0  0  0  0  0  0  0
   -1.2764    0.6902    0.0000 C   0  0  0  0  0  0  0  0  0  0  0  0
    0.3136    0.5102    0.0000 C   0  0  0  0  0  0  0  0  0  0  0  0
   -0.3364    1.8602    0.0000 C   0  0  0  0  0  0  0  0  0  0  0  0
   -1.7964    2.2002    0.0000 C   0  0  0  0  0  0  0  0  0  0  0  0
    2.2369   -1.0235    0.0000 C   0  0  0  0  0  0  0  0  0  0  0  0
    2.2369    2.0439    0.0000 O   0  0  0  0  0  0  0  0  0  0  0  0
    3.6332    1.4959    0.0000 C   0  0  0  0  0  0  0  0  0  0  0  0
    4.8060    2.4311    0.0000 C   0  0  0  0  0  0  0  0  0  0  0  0
    3.8567    0.0126    0.0000 O   0  0  0  0  0  0  0  0  0  0  0  0
   -4.0893   -3.0100    0.0000 C   0  0  0  0  0  0  0  0  0  0  0  0
   -1.1449   -2.5209    0.0000 C   0  0  0  0  0  0  0  0  0  0  0  0
   -3.3902    3.9750    0.0000 C   0  0  0  0  0  0  0  0  0  0  0  0
  1  2  1  0
  2  3  1  0
  3  4  1  0
  4  5  1  0
  1  5  1  0
  5  6  1  0
  6  7  1  0
  7  8  1  0
  4  8  1  0
  7  9  1  0
  9 10  1  0
 10 11  1  0
  4 11  1  6
  9 12  1  6
  9 13  1  0
 13 14  1  0
 14 15  1  0
 14 16  2  0
  6 17  1  0
  6 18  1  0
  3 19  1  0
M  END
>  <cdk:Title>  (352) 
AC1liaca

>  <1A2>  (352) 
N

>  <2A6>  (352) 
N

>  <2B6>  (352) 
N

>  <2C8>  (352) 
N

>  <2C9>  (352) 
N

>  <2C19>  (352) 
N

>  <2D6>  (352) 
N

>  <2E1>  (352) 
N

>  <3A4>  (352) 
N

>  <Citation>  (352) 
Nucleic Acids Res. 2018. Jan 4;46(D1):D608-17. PMID:29140435
Nucleic Acids Res. 2018 Jan 4;46(D1):D1074-D1082. PMID:29126136
Nucleic Acids Res., 45:D380-388 (2017).  PMID:27924025
Nucleic Acids Res. 2016 Jan 4;44(D1):D1202-13. PMID:26400175

>  <ROMol>  (352) 
<rdkit.Chem.rdchem.Mol object at 0x7c2905d31d20>

>  <Drug_like>  (352) 
True

$$$$
Caproylcholine
     RDKit          2D

 14 13  0  0  0  0  0  0  0  0999 V2000
    1.4243   -0.1714    0.0000 N   0  0  0  0  0  0  0  0  0  0  0  0
    3.9705    1.2986    0.0000 C   0  0  0  0  0  0  0  0  0  0  0  0
    5.2695    0.5486    0.0000 C   0  0  0  0  0  0  0  0  0  0  0  0
    6.5685    1.2986    0.0000 O   0  0  0  0  0  0  0  0  0  0  0  0
    7.8676    0.5486    0.0000 C   0  0  0  0  0  0  0  0  0  0  0  0
    9.1666    1.2986    0.0000 C   0  0  0  0  0  0  0  0  0  0  0  0
   10.4657    0.5486    0.0000 C   0  0  0  0  0  0  0  0  0  0  0  0
   12.5961    1.7786    0.0000 C   0  0  0  0  0  0  0  0  0  0  0  0
   13.8951    1.0286    0.0000 C   0  0  0  0  0  0  0  0  0  0  0  0
   15.1942    1.7786    0.0000 C   0  0  0  0  0  0  0  0  0  0  0  0
    7.8676   -0.9514    0.0000 O   0  0  0  0  0  0  0  0  0  0  0  0
    0.1253    0.5786    0.0000 C   0  0  0  0  0  0  0  0  0  0  0  0
    0.4602   -1.3205    0.0000 C   0  0  0  0  0  0  0  0  0  0  0  0
    2.3885   -1.3205    0.0000 C   0  0  0  0  0  0  0  0  0  0  0  0
  1  2  1  0
  2  3  1  0
  3  4  1  0
  4  5  1  0
  5  6  1  0
  6  7  1  0
  7  8  1  0
  8  9  1  0
  9 10  1  0
  5 11  2  0
  1 12  1  0
  1 13  1  0
  1 14  1  0
M  CHG  1   1   1
M  END
>  <cdk:Title>  (353) 
Caproylcholine

>  <1A2>  (353) 
N

>  <2A6>  (353) 
N

>  <2B6>  (353) 
N

>  <2C8>  (353) 
N

>  <2C9>  (353) 
N

>  <2C19>  (353) 
N

>  <2D6>  (353) 
N

>  <2E1>  (353) 
N

>  <3A4>  (353) 
N

>  <Citation>  (353) 
Nucleic Acids Res. 2018. Jan 4;46(D1):D608-17. PMID:29140435
Nucleic Acids Res. 2018 Jan 4;46(D1):D1074-D1082. PMID:29126136
Nucleic Acids Res., 45:D380-388 (2017).  PMID:27924025
Nucleic Acids Res. 2016 Jan 4;44(D1):D1202-13. PMID:26400175

>  <ROMol>  (353) 
<rdkit.Chem.rdchem.Mol object at 0x7c2905d31e00>

>  <Drug_like>  (353) 
True

$$$$
15-Keto-prostaglandin e2
     RDKit          2D

 25 25  0  0  0  0  0  0  0  0999 V2000
    3.3039   -6.8741    0.0000 O   0  0  0  0  0  0  0  0  0  0  0  0
    3.6338   -5.4108    0.0000 C   0  0  0  0  0  0  0  0  0  0  0  0
    3.6484   -3.9246    0.0000 C   0  0  0  0  0  0  0  0  0  0  0  0
    5.0760   -3.4643    0.0000 C   0  0  0  0  0  0  0  0  0  0  0  0
    4.0780   -1.2159    0.0000 C   0  0  0  0  0  0  0  0  0  0  0  0
    4.9610   -0.0033    0.0000 C   0  0  0  0  0  0  0  0  0  0  0  0
    6.4526   -0.1618    0.0000 C   0  0  0  0  0  0  0  0  0  0  0  0
    7.0612   -1.5328    0.0000 C   0  0  0  0  0  0  0  0  0  0  0  0
    8.5528   -1.6913    0.0000 C   0  0  0  0  0  0  0  0  0  0  0  0
    9.4359   -0.4788    0.0000 C   0  0  0  0  0  0  0  0  0  0  0  0
   10.9275   -0.6372    0.0000 C   0  0  0  0  0  0  0  0  0  0  0  0
   11.8105    0.5753    0.0000 O   0  0  0  0  0  0  0  0  0  0  0  0
   11.5360   -2.0082    0.0000 O   0  0  0  0  0  0  0  0  0  0  0  0
    5.9622   -4.6811    0.0000 C   0  0  0  0  0  0  0  0  0  0  0  0
    7.4622   -4.6874    0.0000 O   0  0  0  0  0  0  0  0  0  0  0  0
    5.0616   -5.8961    0.0000 C   0  0  0  0  0  0  0  0  0  0  0  0
    1.6778   -4.1172    0.0000 C   0  0  0  0  0  0  0  0  0  0  0  0
    0.8050   -2.8972    0.0000 C   0  0  0  0  0  0  0  0  0  0  0  0
   -0.6879   -3.0431    0.0000 C   0  0  0  0  0  0  0  0  0  0  0  0
   -1.3080   -4.4089    0.0000 O   0  0  0  0  0  0  0  0  0  0  0  0
   -1.5607   -1.8231    0.0000 C   0  0  0  0  0  0  0  0  0  0  0  0
   -3.0535   -1.9690    0.0000 C   0  0  0  0  0  0  0  0  0  0  0  0
   -4.4849    0.0317    0.0000 C   0  0  0  0  0  0  0  0  0  0  0  0
   -5.9778   -0.1141    0.0000 C   0  0  0  0  0  0  0  0  0  0  0  0
   -6.8505    1.1058    0.0000 C   0  0  0  0  0  0  0  0  0  0  0  0
  1  2  1  0
  2  3  1  0
  3  4  1  0
  4  5  1  0
  5  6  1  0
  6  7  2  0
  7  8  1  0
  8  9  1  0
  9 10  1  0
 10 11  1  0
 11 12  1  0
 11 13  2  0
  4 14  1  0
 14 15  2  0
 14 16  1  0
  2 16  1  0
  3 17  1  0
 17 18  2  0
 18 19  1  0
 19 20  2  0
 19 21  1  0
 21 22  1  0
 22 23  1  0
 23 24  1  0
 24 25  1  0
M  END
>  <cdk:Title>  (354) 
15-Keto-prostaglandin e2

>  <1A2>  (354) 
N

>  <2A6>  (354) 
N

>  <2B6>  (354) 
N

>  <2C8>  (354) 
N

>  <2C9>  (354) 
N

>  <2C19>  (354) 
N

>  <2D6>  (354) 
N

>  <2E1>  (354) 
N

>  <3A4>  (354) 
N

>  <Citation>  (354) 
Nucleic Acids Res. 2018. Jan 4;46(D1):D608-17. PMID:29140435
Nucleic Acids Res. 2018 Jan 4;46(D1):D1074-D1082. PMID:29126136
Nucleic Acids Res., 45:D380-388 (2017).  PMID:27924025
Nucleic Acids Res. 2016 Jan 4;44(D1):D1202-13. PMID:26400175

>  <ROMol>  (354) 
<rdkit.Chem.rdchem.Mol object at 0x7c2905d31e70>

>  <Drug_like>  (354) 
True

$$$$
2_6_6-Trimethyl-1_4-cyclohexadiene-1-carboxaldehyde
     RDKit          2D

 11 11  0  0  0  0  0  0  0  0999 V2000
    3.8058   -0.3495    0.0000 C   0  0  0  0  0  0  0  0  0  0  0  0
    2.5067   -1.0993    0.0000 C   0  0  0  0  0  0  0  0  0  0  0  0
    2.5062   -2.6001    0.0000 C   0  0  0  0  0  0  0  0  0  0  0  0
    1.2067   -3.3509    0.0000 C   0  0  0  0  0  0  0  0  0  0  0  0
   -0.0924   -2.6009    0.0000 C   0  0  0  0  0  0  0  0  0  0  0  0
   -0.0919   -1.1001    0.0000 C   0  0  0  0  0  0  0  0  0  0  0  0
   -0.6051    0.3094    0.0000 C   0  0  0  0  0  0  0  0  0  0  0  0
   -2.9873   -1.6103    0.0000 C   0  0  0  0  0  0  0  0  0  0  0  0
    1.2076   -0.3493    0.0000 C   0  0  0  0  0  0  0  0  0  0  0  0
    1.2073    1.6307    0.0000 C   0  0  0  0  0  0  0  0  0  0  0  0
    2.5062    2.3810    0.0000 O   0  0  0  0  0  0  0  0  0  0  0  0
  1  2  1  0
  2  3  1  0
  3  4  1  0
  4  5  2  0
  5  6  1  0
  6  7  1  0
  6  8  1  0
  6  9  1  0
  2  9  2  0
  9 10  1  0
 10 11  2  0
M  END
>  <cdk:Title>  (355) 
2_6_6-Trimethyl-1_4-cyclohexadiene-1-carboxaldehyde

>  <1A2>  (355) 
N

>  <2A6>  (355) 
N

>  <2B6>  (355) 
N

>  <2C8>  (355) 
N

>  <2C9>  (355) 
N

>  <2C19>  (355) 
N

>  <2D6>  (355) 
N

>  <2E1>  (355) 
N

>  <3A4>  (355) 
N

>  <Citation>  (355) 
Nucleic Acids Res. 2018. Jan 4;46(D1):D608-17. PMID:29140435
Nucleic Acids Res. 2018 Jan 4;46(D1):D1074-D1082. PMID:29126136
Nucleic Acids Res., 45:D380-388 (2017).  PMID:27924025
Nucleic Acids Res. 2016 Jan 4;44(D1):D1202-13. PMID:26400175

>  <ROMol>  (355) 
<rdkit.Chem.rdchem.Mol object at 0x7c2905d31ee0>

>  <Drug_like>  (355) 
True

$$$$
SR 49498
     RDKit          2D

 33 36  0  0  0  0  0  0  0  0999 V2000
   11.3343    9.5040    0.0000 C   0  0  0  0  0  0  0  0  0  0  0  0
    9.8489    9.2951    0.0000 C   0  0  0  0  0  0  0  0  0  0  0  0
    9.2870    7.9043    0.0000 C   0  0  0  0  0  0  0  0  0  0  0  0
    7.3263    7.6287    0.0000 C   0  0  0  0  0  0  0  0  0  0  0  0
    6.7644    6.2379    0.0000 C   0  0  0  0  0  0  0  0  0  0  0  0
    7.6880    5.0559    0.0000 O   0  0  0  0  0  0  0  0  0  0  0  0
    5.2790    6.0291    0.0000 N   0  0  0  0  0  0  0  0  0  0  0  0
    4.5374    4.1932    0.0000 C   0  0  0  0  0  0  0  0  0  0  0  0
    3.6919    2.9517    0.0000 C   0  0  0  0  0  0  0  0  0  0  0  0
    4.6253    1.7748    0.0000 C   0  0  0  0  0  0  0  0  0  0  0  0
    6.0276    2.2861    0.0000 C   0  0  0  0  0  0  0  0  0  0  0  0
    5.9732    3.7851    0.0000 C   0  0  0  0  0  0  0  0  0  0  0  0
    2.7912    5.1266    0.0000 C   0  0  0  0  0  0  0  0  0  0  0  0
    1.5174    4.3346    0.0000 N   0  0  0  0  0  0  0  0  0  0  0  0
    0.1945    5.0417    0.0000 C   0  0  0  0  0  0  0  0  0  0  0  0
   -1.0793    4.2496    0.0000 C   0  0  0  0  0  0  0  0  0  0  0  0
   -2.3488    4.9485    0.0000 C   0  0  0  0  0  0  0  0  0  0  0  0
   -3.6355    4.2172    0.0000 C   0  0  0  0  0  0  0  0  0  0  0  0
   -3.5681    2.7203    0.0000 C   0  0  0  0  0  0  0  0  0  0  0  0
   -2.2986    2.0215    0.0000 C   0  0  0  0  0  0  0  0  0  0  0  0
   -1.0119    2.7528    0.0000 C   0  0  0  0  0  0  0  0  0  0  0  0
   -5.2495    1.6748    0.0000 C   0  0  0  0  0  0  0  0  0  0  0  0
   -6.5665    2.3765    0.0000 C   0  0  0  0  0  0  0  0  0  0  0  0
   -7.8416    1.5865    0.0000 C   0  0  0  0  0  0  0  0  0  0  0  0
   -7.7998    0.0949    0.0000 C   0  0  0  0  0  0  0  0  0  0  0  0
   -6.4777   -0.6152    0.0000 C   0  0  0  0  0  0  0  0  0  0  0  0
   -5.2025    0.1747    0.0000 C   0  0  0  0  0  0  0  0  0  0  0  0
   -4.0239   -0.7532    0.0000 C   0  0  0  0  0  0  0  0  0  0  0  0
   -2.5799   -0.3396    0.0000 N   0  0  0  0  0  0  0  0  0  0  0  0
   -1.7551   -1.5950    0.0000 N   0  0  0  0  0  0  0  0  0  0  0  0
   -2.6803   -2.7663    0.0000 N   0  0  0  0  0  0  0  0  0  0  0  0
   -4.0866   -2.2445    0.0000 N   0  0  0  0  0  0  0  0  0  0  0  0
    2.7422    6.6258    0.0000 O   0  0  0  0  0  0  0  0  0  0  0  0
  1  2  1  0
  2  3  1  0
  3  4  1  0
  4  5  1  0
  5  6  2  0
  5  7  1  0
  7  8  1  0
  8  9  1  0
  9 10  1  0
 10 11  1  0
 11 12  1  0
  8 12  1  0
  8 13  1  0
 13 14  1  0
 14 15  1  0
 15 16  1  0
 16 17  2  0
 17 18  1  0
 18 19  2  0
 19 20  1  0
 20 21  2  0
 16 21  1  0
 19 22  1  0
 22 23  2  0
 23 24  1  0
 24 25  2  0
 25 26  1  0
 26 27  2  0
 22 27  1  0
 27 28  1  0
 28 29  2  0
 29 30  1  0
 30 31  1  0
 31 32  2  0
 28 32  1  0
 13 33  2  0
M  END
>  <cdk:Title>  (356) 
SR 49498

>  <1A2>  (356) 
N

>  <2A6>  (356) 
N

>  <2B6>  (356) 
N

>  <2C8>  (356) 
N

>  <2C9>  (356) 
N

>  <2C19>  (356) 
N

>  <2D6>  (356) 
N

>  <2E1>  (356) 
N

>  <3A4>  (356) 
N

>  <Citation>  (356) 
Nucleic Acids Res. 2018. Jan 4;46(D1):D608-17. PMID:29140435
Nucleic Acids Res. 2018 Jan 4;46(D1):D1074-D1082. PMID:29126136
Nucleic Acids Res., 45:D380-388 (2017).  PMID:27924025
Nucleic Acids Res. 2016 Jan 4;44(D1):D1202-13. PMID:26400175

>  <ROMol>  (356) 
<rdkit.Chem.rdchem.Mol object at 0x7c2905d32030>

>  <Drug_like>  (356) 
True

$$$$
Ethyl maltol
     RDKit          2D

 10 10  0  0  0  0  0  0  0  0999 V2000
   -1.1215    1.5908    0.0000 C   0  0  0  0  0  0  0  0  0  0  0  0
   -1.1217    0.0908    0.0000 C   0  0  0  0  0  0  0  0  0  0  0  0
    0.1772   -0.6595    0.0000 C   0  0  0  0  0  0  0  0  0  0  0  0
    0.1772   -2.1595    0.0000 C   0  0  0  0  0  0  0  0  0  0  0  0
    1.4772   -2.9095    0.0000 C   0  0  0  0  0  0  0  0  0  0  0  0
    2.7772   -2.1595    0.0000 C   0  0  0  0  0  0  0  0  0  0  0  0
    2.7772   -0.6595    0.0000 C   0  0  0  0  0  0  0  0  0  0  0  0
    1.4772    0.0905    0.0000 O   0  0  0  0  0  0  0  0  0  0  0  0
    1.4772   -4.4095    0.0000 O   0  0  0  0  0  0  0  0  0  0  0  0
   -1.1217   -2.9097    0.0000 O   0  0  0  0  0  0  0  0  0  0  0  0
  1  2  1  0
  2  3  1  0
  3  4  2  0
  4  5  1  0
  5  6  1  0
  6  7  2  0
  7  8  1  0
  3  8  1  0
  5  9  2  0
  4 10  1  0
M  END
>  <cdk:Title>  (357) 
Ethyl maltol

>  <1A2>  (357) 
N

>  <2A6>  (357) 
N

>  <2B6>  (357) 
N

>  <2C8>  (357) 
N

>  <2C9>  (357) 
N

>  <2C19>  (357) 
N

>  <2D6>  (357) 
N

>  <2E1>  (357) 
N

>  <3A4>  (357) 
N

>  <Citation>  (357) 
Nucleic Acids Res. 2018. Jan 4;46(D1):D608-17. PMID:29140435
Nucleic Acids Res. 2018 Jan 4;46(D1):D1074-D1082. PMID:29126136
Nucleic Acids Res., 45:D380-388 (2017).  PMID:27924025
Nucleic Acids Res. 2016 Jan 4;44(D1):D1202-13. PMID:26400175

>  <ROMol>  (357) 
<rdkit.Chem.rdchem.Mol object at 0x7c2905d320a0>

>  <Drug_like>  (357) 
True

$$$$
ZINC2572145
     RDKit          2D

 12 13  0  0  0  0  0  0  0  0999 V2000
   -2.7668   -1.4674    0.0000 C   0  0  0  0  0  0  0  0  0  0  0  0
   -5.1548    0.2475    0.0000 C   0  0  0  0  0  0  0  0  0  0  0  0
   -2.7668    1.9624    0.0000 C   0  0  0  0  0  0  0  0  0  0  0  0
   -5.6148   -1.2525    0.0000 C   0  0  0  0  0  0  0  0  0  0  0  0
   -4.3148   -0.5025    0.0000 C   0  0  0  0  0  0  0  0  0  0  0  0
   -4.3148    0.9975    0.0000 C   0  0  0  0  0  0  0  0  0  0  0  0
   -5.6148    1.7475    0.0000 C   0  0  0  0  0  0  0  0  0  0  0  0
   -5.6181    3.7275    0.0000 C   0  0  0  0  0  0  0  0  0  0  0  0
   -6.9048    0.9975    0.0000 C   0  0  0  0  0  0  0  0  0  0  0  0
   -7.5858    2.8567    0.0000 C   0  0  0  0  0  0  0  0  0  0  0  0
   -6.9048   -0.5025    0.0000 C   0  0  0  0  0  0  0  0  0  0  0  0
   -8.3818    0.7355    0.0000 O   0  0  0  0  0  0  0  0  0  0  0  0
  1  2  1  0
  2  3  1  0
  2  4  1  0
  4  5  1  0
  5  6  1  0
  6  7  1  0
  2  7  1  0
  7  8  1  1
  7  9  1  0
  9 10  1  1
  9 11  1  0
  4 11  1  0
  9 12  1  0
M  END
>  <cdk:Title>  (358) 
ZINC2572145

>  <1A2>  (358) 
N

>  <2A6>  (358) 
N

>  <2B6>  (358) 
N

>  <2C8>  (358) 
N

>  <2C9>  (358) 
N

>  <2C19>  (358) 
N

>  <2D6>  (358) 
N

>  <2E1>  (358) 
N

>  <3A4>  (358) 
N

>  <Citation>  (358) 
Nucleic Acids Res. 2018. Jan 4;46(D1):D608-17. PMID:29140435
Nucleic Acids Res. 2018 Jan 4;46(D1):D1074-D1082. PMID:29126136
Nucleic Acids Res., 45:D380-388 (2017).  PMID:27924025
Nucleic Acids Res. 2016 Jan 4;44(D1):D1202-13. PMID:26400175

>  <ROMol>  (358) 
<rdkit.Chem.rdchem.Mol object at 0x7c2905d32110>

>  <Drug_like>  (358) 
True

$$$$
(R)-alpha-Phellandrene
     RDKit          2D

 10 10  0  0  0  0  0  0  0  0999 V2000
    0.7886   -3.9476    0.0000 C   0  0  0  0  0  0  0  0  0  0  0  0
    0.4863   -2.4800    0.0000 C   0  0  0  0  0  0  0  0  0  0  0  0
   -0.9406   -2.0871    0.0000 C   0  0  0  0  0  0  0  0  0  0  0  0
   -1.9996   -3.0764    0.0000 C   0  0  0  0  0  0  0  0  0  0  0  0
   -3.4290   -2.6214    0.0000 C   0  0  0  0  0  0  0  0  0  0  0  0
   -1.6974   -4.5439    0.0000 C   0  0  0  0  0  0  0  0  0  0  0  0
   -0.2704   -4.9368    0.0000 C   0  0  0  0  0  0  0  0  0  0  0  0
    3.5124   -2.8410    0.0000 C   0  0  0  0  0  0  0  0  0  0  0  0
    3.7842   -0.8798    0.0000 C   0  0  0  0  0  0  0  0  0  0  0  0
    4.0284   -5.2463    0.0000 C   0  0  0  0  0  0  0  0  0  0  0  0
  1  2  1  0
  2  3  1  0
  3  4  2  0
  4  5  1  0
  4  6  1  0
  6  7  2  0
  1  7  1  0
  1  8  1  0
  8  9  1  0
  8 10  1  0
M  END
>  <cdk:Title>  (359) 
(R)-alpha-Phellandrene

>  <1A2>  (359) 
N

>  <2A6>  (359) 
N

>  <2B6>  (359) 
N

>  <2C8>  (359) 
N

>  <2C9>  (359) 
N

>  <2C19>  (359) 
N

>  <2D6>  (359) 
N

>  <2E1>  (359) 
N

>  <3A4>  (359) 
N

>  <Citation>  (359) 
Nucleic Acids Res. 2018. Jan 4;46(D1):D608-17. PMID:29140435
Nucleic Acids Res. 2018 Jan 4;46(D1):D1074-D1082. PMID:29126136
Nucleic Acids Res., 45:D380-388 (2017).  PMID:27924025
Nucleic Acids Res. 2016 Jan 4;44(D1):D1202-13. PMID:26400175

>  <ROMol>  (359) 
<rdkit.Chem.rdchem.Mol object at 0x7c2905d32180>

>  <Drug_like>  (359) 
True

$$$$
Benzoyl glucuronide (benzoic acid)
     RDKit          2D

 21 22  0  0  0  0  0  0  0  0999 V2000
   -3.7244    5.8046    0.0000 O   0  0  0  0  0  0  0  0  0  0  0  0
   -5.2032    5.5479    0.0000 C   0  0  0  0  0  0  0  0  0  0  0  0
   -5.7160    4.1489    0.0000 C   0  0  0  0  0  0  0  0  0  0  0  0
   -4.7570    2.9879    0.0000 C   0  0  0  0  0  0  0  0  0  0  0  0
   -6.0607    2.2461    0.0000 O   0  0  0  0  0  0  0  0  0  0  0  0
   -3.2561    3.2471    0.0000 C   0  0  0  0  0  0  0  0  0  0  0  0
   -3.2607    1.7471    0.0000 O   0  0  0  0  0  0  0  0  0  0  0  0
   -2.7432    4.6461    0.0000 C   0  0  0  0  0  0  0  0  0  0  0  0
   -1.4442    3.8961    0.0000 O   0  0  0  0  0  0  0  0  0  0  0  0
   -0.1452    4.6461    0.0000 C   0  0  0  0  0  0  0  0  0  0  0  0
   -0.1452    6.1461    0.0000 O   0  0  0  0  0  0  0  0  0  0  0  0
    1.1539    3.8961    0.0000 C   0  0  0  0  0  0  0  0  0  0  0  0
    2.4534    4.6469    0.0000 C   0  0  0  0  0  0  0  0  0  0  0  0
    3.7524    3.8969    0.0000 C   0  0  0  0  0  0  0  0  0  0  0  0
    3.7520    2.3961    0.0000 C   0  0  0  0  0  0  0  0  0  0  0  0
    2.4524    1.6453    0.0000 C   0  0  0  0  0  0  0  0  0  0  0  0
    1.1534    2.3953    0.0000 C   0  0  0  0  0  0  0  0  0  0  0  0
   -7.0119    4.9042    0.0000 O   0  0  0  0  0  0  0  0  0  0  0  0
   -5.1994    7.0479    0.0000 C   0  0  0  0  0  0  0  0  0  0  0  0
   -6.4965    7.8011    0.0000 O   0  0  0  0  0  0  0  0  0  0  0  0
   -3.8985    7.7946    0.0000 O   0  0  0  0  0  0  0  0  0  0  0  0
  1  2  1  0
  2  3  1  0
  3  4  1  0
  4  5  1  0
  4  6  1  0
  6  7  1  0
  6  8  1  0
  1  8  1  0
  8  9  1  0
  9 10  1  0
 10 11  2  0
 10 12  1  0
 12 13  2  0
 13 14  1  0
 14 15  2  0
 15 16  1  0
 16 17  2  0
 12 17  1  0
  3 18  1  0
  2 19  1  0
 19 20  1  0
 19 21  2  0
M  END
>  <cdk:Title>  (360) 
Benzoyl glucuronide (benzoic acid)

>  <1A2>  (360) 
N

>  <2A6>  (360) 
N

>  <2B6>  (360) 
N

>  <2C8>  (360) 
N

>  <2C9>  (360) 
N

>  <2C19>  (360) 
N

>  <2D6>  (360) 
N

>  <2E1>  (360) 
N

>  <3A4>  (360) 
N

>  <Citation>  (360) 
Nucleic Acids Res. 2018. Jan 4;46(D1):D608-17. PMID:29140435
Nucleic Acids Res. 2018 Jan 4;46(D1):D1074-D1082. PMID:29126136
Nucleic Acids Res., 45:D380-388 (2017).  PMID:27924025
Nucleic Acids Res. 2016 Jan 4;44(D1):D1202-13. PMID:26400175

>  <ROMol>  (360) 
<rdkit.Chem.rdchem.Mol object at 0x7c2905d321f0>

>  <Drug_like>  (360) 
True

$$$$
3-Hydroxycoumarin
     RDKit          2D

 12 13  0  0  0  0  0  0  0  0999 V2000
    1.3000    1.5000    0.0000 O   0  0  0  0  0  0  0  0  0  0  0  0
    0.0000    0.7500    0.0000 C   0  0  0  0  0  0  0  0  0  0  0  0
    0.0000   -0.7500    0.0000 C   0  0  0  0  0  0  0  0  0  0  0  0
    1.3000   -1.5000    0.0000 C   0  0  0  0  0  0  0  0  0  0  0  0
    2.6000   -0.7500    0.0000 C   0  0  0  0  0  0  0  0  0  0  0  0
    3.8989   -1.5002    0.0000 O   0  0  0  0  0  0  0  0  0  0  0  0
    2.6000    0.7500    0.0000 C   0  0  0  0  0  0  0  0  0  0  0  0
    3.8989    1.5002    0.0000 O   0  0  0  0  0  0  0  0  0  0  0  0
   -1.3000   -1.5000    0.0000 C   0  0  0  0  0  0  0  0  0  0  0  0
   -2.6000   -0.7500    0.0000 C   0  0  0  0  0  0  0  0  0  0  0  0
   -2.6000    0.7500    0.0000 C   0  0  0  0  0  0  0  0  0  0  0  0
   -1.3000    1.5000    0.0000 C   0  0  0  0  0  0  0  0  0  0  0  0
  1  2  1  0
  2  3  2  0
  3  4  1  0
  4  5  2  0
  5  6  1  0
  5  7  1  0
  1  7  1  0
  7  8  2  0
  3  9  1  0
  9 10  2  0
 10 11  1  0
 11 12  2  0
  2 12  1  0
M  END
>  <cdk:Title>  (361) 
3-Hydroxycoumarin

>  <1A2>  (361) 
N

>  <2A6>  (361) 
N

>  <2B6>  (361) 
N

>  <2C8>  (361) 
N

>  <2C9>  (361) 
N

>  <2C19>  (361) 
N

>  <2D6>  (361) 
N

>  <2E1>  (361) 
N

>  <3A4>  (361) 
N

>  <Citation>  (361) 
Nucleic Acids Res. 2018. Jan 4;46(D1):D608-17. PMID:29140435
Nucleic Acids Res. 2018 Jan 4;46(D1):D1074-D1082. PMID:29126136
Nucleic Acids Res., 45:D380-388 (2017).  PMID:27924025
Nucleic Acids Res. 2016 Jan 4;44(D1):D1202-13. PMID:26400175

>  <ROMol>  (361) 
<rdkit.Chem.rdchem.Mol object at 0x7c2905d32260>

>  <Drug_like>  (361) 
True

$$$$
CHEMBL2074937
     RDKit          2D

 21 21  0  0  0  0  0  0  0  0999 V2000
   -0.0006    3.0804    0.0000 N   0  0  0  0  0  0  0  0  0  0  0  0
   -0.0006    4.5804    0.0000 C   0  0  0  0  0  0  0  0  0  0  0  0
   -1.2997    5.3304    0.0000 O   0  0  0  0  0  0  0  0  0  0  0  0
    1.2984    5.3304    0.0000 C   0  0  0  0  0  0  0  0  0  0  0  0
    0.3342    6.4794    0.0000 N   0  0  0  0  0  0  0  0  0  0  0  0
    2.5974    4.5804    0.0000 C   0  0  0  0  0  0  0  0  0  0  0  0
    3.8965    5.3304    0.0000 C   0  0  0  0  0  0  0  0  0  0  0  0
    5.1960    4.5795    0.0000 C   0  0  0  0  0  0  0  0  0  0  0  0
    6.4950    5.3295    0.0000 C   0  0  0  0  0  0  0  0  0  0  0  0
    6.4946    6.8304    0.0000 C   0  0  0  0  0  0  0  0  0  0  0  0
    5.1950    7.5812    0.0000 C   0  0  0  0  0  0  0  0  0  0  0  0
    3.8960    6.8312    0.0000 C   0  0  0  0  0  0  0  0  0  0  0  0
   -1.2997    2.3304    0.0000 C   0  0  0  0  0  0  0  0  0  0  0  0
   -3.0144    3.3204    0.0000 C   0  0  0  0  0  0  0  0  0  0  0  0
   -4.3134    2.5704    0.0000 C   0  0  0  0  0  0  0  0  0  0  0  0
   -5.6125    3.3204    0.0000 C   0  0  0  0  0  0  0  0  0  0  0  0
   -6.9115    2.5704    0.0000 N   0  0  0  0  0  0  0  0  0  0  0  0
   -5.6125    4.8204    0.0000 O   0  0  0  0  0  0  0  0  0  0  0  0
   -0.3355    1.1813    0.0000 C   0  0  0  0  0  0  0  0  0  0  0  0
   -0.8485   -0.2282    0.0000 O   0  0  0  0  0  0  0  0  0  0  0  0
    1.1417    1.4418    0.0000 O   0  0  0  0  0  0  0  0  0  0  0  0
  1  2  1  0
  2  3  2  0
  2  4  1  0
  4  5  1  0
  4  6  1  0
  6  7  1  0
  7  8  2  0
  8  9  1  0
  9 10  2  0
 10 11  1  0
 11 12  2  0
  7 12  1  0
  1 13  1  0
 13 14  1  0
 14 15  1  0
 15 16  1  0
 16 17  1  0
 16 18  2  0
 13 19  1  0
 19 20  1  0
 19 21  2  0
M  END
>  <cdk:Title>  (362) 
CHEMBL2074937

>  <1A2>  (362) 
N

>  <2A6>  (362) 
N

>  <2B6>  (362) 
N

>  <2C8>  (362) 
N

>  <2C9>  (362) 
N

>  <2C19>  (362) 
N

>  <2D6>  (362) 
N

>  <2E1>  (362) 
N

>  <3A4>  (362) 
N

>  <Citation>  (362) 
Nucleic Acids Res. 2018. Jan 4;46(D1):D608-17. PMID:29140435
Nucleic Acids Res. 2018 Jan 4;46(D1):D1074-D1082. PMID:29126136
Nucleic Acids Res., 45:D380-388 (2017).  PMID:27924025
Nucleic Acids Res. 2016 Jan 4;44(D1):D1202-13. PMID:26400175

>  <ROMol>  (362) 
<rdkit.Chem.rdchem.Mol object at 0x7c2905d322d0>

>  <Drug_like>  (362) 
True

$$$$
Pro-phe
     RDKit          2D

 19 20  0  0  0  0  0  0  0  0999 V2000
   -2.2165    5.3393    0.0000 C   0  0  0  0  0  0  0  0  0  0  0  0
   -0.9174    6.0893    0.0000 O   0  0  0  0  0  0  0  0  0  0  0  0
   -3.5155    6.0893    0.0000 C   0  0  0  0  0  0  0  0  0  0  0  0
   -2.6365    7.3000    0.0000 N   0  0  0  0  0  0  0  0  0  0  0  0
   -3.5157    8.5180    0.0000 C   0  0  0  0  0  0  0  0  0  0  0  0
   -4.9423    8.0547    0.0000 C   0  0  0  0  0  0  0  0  0  0  0  0
   -4.9381    6.5526    0.0000 C   0  0  0  0  0  0  0  0  0  0  0  0
   -2.2165    3.8393    0.0000 N   0  0  0  0  0  0  0  0  0  0  0  0
   -0.9174    3.0893    0.0000 C   0  0  0  0  0  0  0  0  0  0  0  0
   -1.8816    1.9403    0.0000 C   0  0  0  0  0  0  0  0  0  0  0  0
   -3.3588    2.2007    0.0000 O   0  0  0  0  0  0  0  0  0  0  0  0
   -1.3686    0.5307    0.0000 O   0  0  0  0  0  0  0  0  0  0  0  0
    0.3816    3.8393    0.0000 C   0  0  0  0  0  0  0  0  0  0  0  0
    1.6806    3.0893    0.0000 C   0  0  0  0  0  0  0  0  0  0  0  0
    2.9802    3.8402    0.0000 C   0  0  0  0  0  0  0  0  0  0  0  0
    4.2792    3.0902    0.0000 C   0  0  0  0  0  0  0  0  0  0  0  0
    4.2787    1.5893    0.0000 C   0  0  0  0  0  0  0  0  0  0  0  0
    2.9792    0.8385    0.0000 C   0  0  0  0  0  0  0  0  0  0  0  0
    1.6802    1.5885    0.0000 C   0  0  0  0  0  0  0  0  0  0  0  0
  1  2  2  0
  1  3  1  0
  3  4  1  0
  4  5  1  0
  5  6  1  0
  6  7  1  0
  3  7  1  0
  1  8  1  0
  8  9  1  0
  9 10  1  0
 10 11  2  0
 10 12  1  0
  9 13  1  0
 13 14  1  0
 14 15  2  0
 15 16  1  0
 16 17  2  0
 17 18  1  0
 18 19  2  0
 14 19  1  0
M  END
>  <cdk:Title>  (363) 
Pro-phe

>  <1A2>  (363) 
N

>  <2A6>  (363) 
N

>  <2B6>  (363) 
N

>  <2C8>  (363) 
N

>  <2C9>  (363) 
N

>  <2C19>  (363) 
N

>  <2D6>  (363) 
N

>  <2E1>  (363) 
N

>  <3A4>  (363) 
N

>  <Citation>  (363) 
Nucleic Acids Res. 2018. Jan 4;46(D1):D608-17. PMID:29140435
Nucleic Acids Res. 2018 Jan 4;46(D1):D1074-D1082. PMID:29126136
Nucleic Acids Res., 45:D380-388 (2017).  PMID:27924025
Nucleic Acids Res. 2016 Jan 4;44(D1):D1202-13. PMID:26400175

>  <ROMol>  (363) 
<rdkit.Chem.rdchem.Mol object at 0x7c2905d32340>

>  <Drug_like>  (363) 
True

$$$$
(2R)-2-{[(2R)-2-amino-1-hydroxy-4-(methylsulfanyl)butylidene]amino}-4-methylpent
     RDKit          2D

 17 16  0  0  0  0  0  0  0  0999 V2000
    0.8380   -0.6895    0.0000 C   0  0  0  0  0  0  0  0  0  0  0  0
    1.6793    1.6221    0.0000 C   0  0  0  0  0  0  0  0  0  0  0  0
    1.6793    3.1221    0.0000 C   0  0  0  0  0  0  0  0  0  0  0  0
    4.2255    0.1521    0.0000 C   0  0  0  0  0  0  0  0  0  0  0  0
    5.5245    0.9021    0.0000 C   0  0  0  0  0  0  0  0  0  0  0  0
    6.8235    0.1521    0.0000 N   0  0  0  0  0  0  0  0  0  0  0  0
    6.8235   -1.3479    0.0000 C   0  0  0  0  0  0  0  0  0  0  0  0
    5.5245   -2.0979    0.0000 O   0  0  0  0  0  0  0  0  0  0  0  0
    8.1226   -2.0979    0.0000 C   0  0  0  0  0  0  0  0  0  0  0  0
    7.1584   -3.2470    0.0000 N   0  0  0  0  0  0  0  0  0  0  0  0
    9.4216   -1.3479    0.0000 C   0  0  0  0  0  0  0  0  0  0  0  0
   10.7206   -2.0979    0.0000 C   0  0  0  0  0  0  0  0  0  0  0  0
   10.7206   -3.5979    0.0000 S   0  0  0  0  0  0  0  0  0  0  0  0
   12.0197   -4.3479    0.0000 C   0  0  0  0  0  0  0  0  0  0  0  0
    6.4887    2.0512    0.0000 C   0  0  0  0  0  0  0  0  0  0  0  0
    5.9756    3.4607    0.0000 O   0  0  0  0  0  0  0  0  0  0  0  0
    7.9659    1.7907    0.0000 O   0  0  0  0  0  0  0  0  0  0  0  0
  1  2  1  0
  2  3  1  0
  2  4  1  0
  4  5  1  0
  5  6  1  0
  6  7  1  0
  7  8  2  0
  7  9  1  0
  9 10  1  0
  9 11  1  0
 11 12  1  0
 12 13  1  0
 13 14  1  0
  5 15  1  0
 15 16  1  0
 15 17  2  0
M  END
>  <cdk:Title>  (364) 
(2R)-2-{[(2R)-2-amino-1-hydroxy-4-(methylsulfanyl)butylidene]amino}-4-methylpentanoic acid

>  <1A2>  (364) 
N

>  <2A6>  (364) 
N

>  <2B6>  (364) 
N

>  <2C8>  (364) 
N

>  <2C9>  (364) 
N

>  <2C19>  (364) 
N

>  <2D6>  (364) 
N

>  <2E1>  (364) 
N

>  <3A4>  (364) 
N

>  <Citation>  (364) 
Nucleic Acids Res. 2018. Jan 4;46(D1):D608-17. PMID:29140435
Nucleic Acids Res. 2018 Jan 4;46(D1):D1074-D1082. PMID:29126136
Nucleic Acids Res., 45:D380-388 (2017).  PMID:27924025
Nucleic Acids Res. 2016 Jan 4;44(D1):D1202-13. PMID:26400175

>  <ROMol>  (364) 
<rdkit.Chem.rdchem.Mol object at 0x7c2905d323b0>

>  <Drug_like>  (364) 
True

$$$$
Methyl (e)-2-octenoate
     RDKit          2D

 11 10  0  0  0  0  0  0  0  0999 V2000
    5.6677   -2.2782    0.0000 C   0  0  0  0  0  0  0  0  0  0  0  0
    5.6677   -0.7782    0.0000 C   0  0  0  0  0  0  0  0  0  0  0  0
    6.9668   -0.0282    0.0000 C   0  0  0  0  0  0  0  0  0  0  0  0
    6.9668    2.4318    0.0000 C   0  0  0  0  0  0  0  0  0  0  0  0
    8.2658    3.1818    0.0000 C   0  0  0  0  0  0  0  0  0  0  0  0
    8.2658    4.6818    0.0000 C   0  0  0  0  0  0  0  0  0  0  0  0
    9.5648    5.4318    0.0000 C   0  0  0  0  0  0  0  0  0  0  0  0
   10.8639    4.6818    0.0000 C   0  0  0  0  0  0  0  0  0  0  0  0
   10.8639    3.1818    0.0000 O   0  0  0  0  0  0  0  0  0  0  0  0
   12.1629    5.4318    0.0000 O   0  0  0  0  0  0  0  0  0  0  0  0
   13.4620    4.6818    0.0000 C   0  0  0  0  0  0  0  0  0  0  0  0
  1  2  1  0
  2  3  1  0
  3  4  1  0
  4  5  1  0
  5  6  1  0
  6  7  2  0
  7  8  1  0
  8  9  2  0
  8 10  1  0
 10 11  1  0
M  END
>  <cdk:Title>  (365) 
Methyl (e)-2-octenoate

>  <1A2>  (365) 
N

>  <2A6>  (365) 
N

>  <2B6>  (365) 
N

>  <2C8>  (365) 
N

>  <2C9>  (365) 
N

>  <2C19>  (365) 
N

>  <2D6>  (365) 
N

>  <2E1>  (365) 
N

>  <3A4>  (365) 
N

>  <Citation>  (365) 
Nucleic Acids Res. 2018. Jan 4;46(D1):D608-17. PMID:29140435
Nucleic Acids Res. 2018 Jan 4;46(D1):D1074-D1082. PMID:29126136
Nucleic Acids Res., 45:D380-388 (2017).  PMID:27924025
Nucleic Acids Res. 2016 Jan 4;44(D1):D1202-13. PMID:26400175

>  <ROMol>  (365) 
<rdkit.Chem.rdchem.Mol object at 0x7c2905d32420>

>  <Drug_like>  (365) 
True

$$$$
Aflatoxin m1
     RDKit          2D

 24 28  0  0  0  0  0  0  0  0999 V2000
   -0.1108   -0.0893    0.0000 C   0  0  0  0  0  0  0  0  0  0  0  0
   -1.4108   -0.8393    0.0000 C   0  0  0  0  0  0  0  0  0  0  0  0
   -1.4108   -2.3393    0.0000 C   0  0  0  0  0  0  0  0  0  0  0  0
   -2.8308   -2.8093    0.0000 O   0  0  0  0  0  0  0  0  0  0  0  0
   -3.7208   -1.5893    0.0000 C   0  0  0  0  0  0  0  0  0  0  0  0
   -5.1408   -1.1293    0.0000 O   0  0  0  0  0  0  0  0  0  0  0  0
   -5.1408    0.3707    0.0000 C   0  0  0  0  0  0  0  0  0  0  0  0
   -3.7208    0.8307    0.0000 C   0  0  0  0  0  0  0  0  0  0  0  0
   -2.8308   -0.3793    0.0000 C   0  0  0  0  0  0  0  0  0  0  0  0
   -1.6724    1.2265    0.0000 O   0  0  0  0  0  0  0  0  0  0  0  0
   -0.1108   -3.0893    0.0000 C   0  0  0  0  0  0  0  0  0  0  0  0
    1.1892   -2.3393    0.0000 C   0  0  0  0  0  0  0  0  0  0  0  0
    1.1892   -0.8393    0.0000 C   0  0  0  0  0  0  0  0  0  0  0  0
    2.4892   -0.0893    0.0000 C   0  0  0  0  0  0  0  0  0  0  0  0
    2.4892    1.4107    0.0000 C   0  0  0  0  0  0  0  0  0  0  0  0
    1.1892    2.1607    0.0000 C   0  0  0  0  0  0  0  0  0  0  0  0
   -0.1108    1.4107    0.0000 O   0  0  0  0  0  0  0  0  0  0  0  0
    1.1892    3.6607    0.0000 O   0  0  0  0  0  0  0  0  0  0  0  0
    3.9192    1.8707    0.0000 C   0  0  0  0  0  0  0  0  0  0  0  0
    4.7992    0.6607    0.0000 C   0  0  0  0  0  0  0  0  0  0  0  0
    3.9192   -0.5593    0.0000 C   0  0  0  0  0  0  0  0  0  0  0  0
    4.3845    3.2967    0.0000 O   0  0  0  0  0  0  0  0  0  0  0  0
    2.4881   -3.0895    0.0000 O   0  0  0  0  0  0  0  0  0  0  0  0
    2.4879   -4.5895    0.0000 C   0  0  0  0  0  0  0  0  0  0  0  0
  1  2  1  0
  2  3  2  0
  3  4  1  0
  4  5  1  0
  5  6  1  0
  6  7  1  0
  7  8  2  0
  8  9  1  0
  5  9  1  0
  2  9  1  0
  9 10  1  6
  3 11  1  0
 11 12  2  0
 12 13  1  0
  1 13  2  0
 13 14  1  0
 14 15  2  0
 15 16  1  0
 16 17  1  0
  1 17  1  0
 16 18  2  0
 15 19  1  0
 19 20  1  0
 20 21  1  0
 14 21  1  0
 19 22  2  0
 12 23  1  0
 23 24  1  0
M  END
>  <cdk:Title>  (366) 
Aflatoxin m1

>  <1A2>  (366) 
N

>  <2A6>  (366) 
N

>  <2B6>  (366) 
N

>  <2C8>  (366) 
N

>  <2C9>  (366) 
N

>  <2C19>  (366) 
N

>  <2D6>  (366) 
N

>  <2E1>  (366) 
N

>  <3A4>  (366) 
N

>  <Citation>  (366) 
Nucleic Acids Res. 2018. Jan 4;46(D1):D608-17. PMID:29140435
Nucleic Acids Res. 2018 Jan 4;46(D1):D1074-D1082. PMID:29126136
Nucleic Acids Res., 45:D380-388 (2017).  PMID:27924025
Nucleic Acids Res. 2016 Jan 4;44(D1):D1202-13. PMID:26400175

>  <ROMol>  (366) 
<rdkit.Chem.rdchem.Mol object at 0x7c2905d32490>

>  <Drug_like>  (366) 
True

$$$$
a-Ketoglutaric acid oxime
     RDKit          2D

 11 10  0  0  0  0  0  0  0  0999 V2000
    5.1962   -0.0000    0.0000 C   0  0  0  0  0  0  0  0  0  0  0  0
    3.8971   -0.7500    0.0000 C   0  0  0  0  0  0  0  0  0  0  0  0
    2.5981   -0.0000    0.0000 C   0  0  0  0  0  0  0  0  0  0  0  0
    1.2990   -0.7500    0.0000 O   0  0  0  0  0  0  0  0  0  0  0  0
    2.5981    1.5000    0.0000 O   0  0  0  0  0  0  0  0  0  0  0  0
    6.4952   -0.7500    0.0000 C   0  0  0  0  0  0  0  0  0  0  0  0
    6.4952   -2.2500    0.0000 N   0  0  0  0  0  0  0  0  0  0  0  0
    5.1962   -3.0000    0.0000 O   0  0  0  0  0  0  0  0  0  0  0  0
    7.7942   -0.0000    0.0000 C   0  0  0  0  0  0  0  0  0  0  0  0
    9.0933   -0.7500    0.0000 O   0  0  0  0  0  0  0  0  0  0  0  0
    7.7942    1.5000    0.0000 O   0  0  0  0  0  0  0  0  0  0  0  0
  1  2  1  0
  2  3  1  0
  3  4  1  0
  3  5  2  0
  1  6  1  0
  6  7  2  0
  7  8  1  0
  6  9  1  0
  9 10  1  0
  9 11  2  0
M  END
>  <cdk:Title>  (367) 
a-Ketoglutaric acid oxime

>  <1A2>  (367) 
N

>  <2A6>  (367) 
N

>  <2B6>  (367) 
N

>  <2C8>  (367) 
N

>  <2C9>  (367) 
N

>  <2C19>  (367) 
N

>  <2D6>  (367) 
N

>  <2E1>  (367) 
N

>  <3A4>  (367) 
N

>  <Citation>  (367) 
Nucleic Acids Res. 2018. Jan 4;46(D1):D608-17. PMID:29140435
Nucleic Acids Res. 2018 Jan 4;46(D1):D1074-D1082. PMID:29126136
Nucleic Acids Res., 45:D380-388 (2017).  PMID:27924025
Nucleic Acids Res. 2016 Jan 4;44(D1):D1202-13. PMID:26400175

>  <ROMol>  (367) 
<rdkit.Chem.rdchem.Mol object at 0x7c2905d32500>

>  <Drug_like>  (367) 
True

$$$$
N-[(3a_5b_7a)-3-Hydroxy-24-oxo-7-(sulfooxy)cholan-24-yl]-glycine
     RDKit          2D

 36 39  0  0  0  0  0  0  0  0999 V2000
    5.3689    1.0949    0.0000 C   0  0  0  0  0  0  0  0  0  0  0  0
    7.2573   -1.1585    0.0000 C   0  0  0  0  0  0  0  0  0  0  0  0
    4.7102   -2.6268    0.0000 C   0  0  0  0  0  0  0  0  0  0  0  0
    3.2802   -3.0868    0.0000 C   0  0  0  0  0  0  0  0  0  0  0  0
    3.5913   -0.1633    0.0000 C   0  0  0  0  0  0  0  0  0  0  0  0
    3.2802   -4.5868    0.0000 C   0  0  0  0  0  0  0  0  0  0  0  0
    1.9802   -5.3368    0.0000 C   0  0  0  0  0  0  0  0  0  0  0  0
    1.9802   -6.8368    0.0000 C   0  0  0  0  0  0  0  0  0  0  0  0
    2.4929   -8.2465    0.0000 O   0  0  0  0  0  0  0  0  0  0  0  0
    3.9701   -8.5073    0.0000 S   0  0  0  0  0  0  0  0  0  0  0  0
    3.4567   -9.9167    0.0000 O   0  0  0  0  0  0  0  0  0  0  0  0
    5.2689   -9.2576    0.0000 O   0  0  0  0  0  0  0  0  0  0  0  0
    4.9345   -7.3584    0.0000 O   0  0  0  0  0  0  0  0  0  0  0  0
    0.6802   -7.5868    0.0000 C   0  0  0  0  0  0  0  0  0  0  0  0
   -0.6198   -6.8368    0.0000 C   0  0  0  0  0  0  0  0  0  0  0  0
   -0.6198   -5.3368    0.0000 C   0  0  0  0  0  0  0  0  0  0  0  0
    0.6802   -4.5868    0.0000 C   0  0  0  0  0  0  0  0  0  0  0  0
    0.6802   -3.0868    0.0000 C   0  0  0  0  0  0  0  0  0  0  0  0
    1.9802   -2.3368    0.0000 C   0  0  0  0  0  0  0  0  0  0  0  0
   -0.2760   -3.3869    0.0000 C   0  0  0  0  0  0  0  0  0  0  0  0
   -1.9198   -4.5868    0.0000 C   0  0  0  0  0  0  0  0  0  0  0  0
   -3.2198   -5.3368    0.0000 C   0  0  0  0  0  0  0  0  0  0  0  0
   -3.2198   -6.8368    0.0000 C   0  0  0  0  0  0  0  0  0  0  0  0
   -1.9198   -7.5868    0.0000 C   0  0  0  0  0  0  0  0  0  0  0  0
   -4.6971   -6.5765    0.0000 O   0  0  0  0  0  0  0  0  0  0  0  0
    4.7102   -5.0568    0.0000 C   0  0  0  0  0  0  0  0  0  0  0  0
    5.5902   -3.8368    0.0000 C   0  0  0  0  0  0  0  0  0  0  0  0
    8.9713   -2.1497    0.0000 C   0  0  0  0  0  0  0  0  0  0  0  0
   10.2709   -1.4005    0.0000 C   0  0  0  0  0  0  0  0  0  0  0  0
   11.5694   -2.1514    0.0000 C   0  0  0  0  0  0  0  0  0  0  0  0
   11.5684   -3.6514    0.0000 O   0  0  0  0  0  0  0  0  0  0  0  0
   12.8689   -1.4022    0.0000 N   0  0  0  0  0  0  0  0  0  0  0  0
   14.1675   -2.1531    0.0000 C   0  0  0  0  0  0  0  0  0  0  0  0
   15.4670   -1.4039    0.0000 C   0  0  0  0  0  0  0  0  0  0  0  0
   15.4680    0.0961    0.0000 O   0  0  0  0  0  0  0  0  0  0  0  0
   16.7656   -2.1548    0.0000 O   0  0  0  0  0  0  0  0  0  0  0  0
  1  2  1  0
  2  3  1  0
  3  4  1  0
  4  5  1  1
  4  6  1  0
  6  7  1  0
  7  8  1  0
  8  9  1  0
  9 10  1  0
 10 11  2  0
 10 12  2  0
 10 13  1  0
  8 14  1  0
 14 15  1  0
 15 16  1  0
 16 17  1  0
  7 17  1  0
 17 18  1  0
 18 19  1  0
  4 19  1  0
 16 20  1  1
 16 21  1  0
 21 22  1  0
 22 23  1  0
 23 24  1  0
 15 24  1  0
 23 25  1  0
  6 26  1  0
 26 27  1  0
  3 27  1  0
  2 28  1  0
 28 29  1  0
 29 30  1  0
 30 31  2  0
 30 32  1  0
 32 33  1  0
 33 34  1  0
 34 35  2  0
 34 36  1  0
M  END
>  <cdk:Title>  (368) 
N-[(3a_5b_7a)-3-Hydroxy-24-oxo-7-(sulfooxy)cholan-24-yl]-glycine

>  <1A2>  (368) 
N

>  <2A6>  (368) 
N

>  <2B6>  (368) 
N

>  <2C8>  (368) 
N

>  <2C9>  (368) 
N

>  <2C19>  (368) 
N

>  <2D6>  (368) 
N

>  <2E1>  (368) 
N

>  <3A4>  (368) 
N

>  <Citation>  (368) 
Nucleic Acids Res. 2018. Jan 4;46(D1):D608-17. PMID:29140435
Nucleic Acids Res. 2018 Jan 4;46(D1):D1074-D1082. PMID:29126136
Nucleic Acids Res., 45:D380-388 (2017).  PMID:27924025
Nucleic Acids Res. 2016 Jan 4;44(D1):D1202-13. PMID:26400175

>  <ROMol>  (368) 
<rdkit.Chem.rdchem.Mol object at 0x7c2905d32570>

>  <Drug_like>  (368) 
True

$$$$
ZINC15270207
     RDKit          2D

 23 22  0  0  0  0  0  0  0  0999 V2000
   -2.8579   -3.7581    0.0000 C   0  0  0  0  0  0  0  0  0  0  0  0
   -1.5588   -3.0081    0.0000 C   0  0  0  0  0  0  0  0  0  0  0  0
   -0.2598   -3.7581    0.0000 C   0  0  0  0  0  0  0  0  0  0  0  0
    1.0392   -3.0081    0.0000 C   0  0  0  0  0  0  0  0  0  0  0  0
    3.1697   -4.2381    0.0000 C   0  0  0  0  0  0  0  0  0  0  0  0
    4.8844   -3.2481    0.0000 C   0  0  0  0  0  0  0  0  0  0  0  0
    6.5991   -4.2381    0.0000 C   0  0  0  0  0  0  0  0  0  0  0  0
    8.3138   -3.2481    0.0000 C   0  0  0  0  0  0  0  0  0  0  0  0
   10.0286   -4.2381    0.0000 C   0  0  0  0  0  0  0  0  0  0  0  0
   11.7433   -3.2481    0.0000 C   0  0  0  0  0  0  0  0  0  0  0  0
   13.4580   -4.2381    0.0000 C   0  0  0  0  0  0  0  0  0  0  0  0
   15.1728   -3.2481    0.0000 C   0  0  0  0  0  0  0  0  0  0  0  0
   16.8875   -4.2381    0.0000 C   0  0  0  0  0  0  0  0  0  0  0  0
   18.1865   -3.4881    0.0000 C   0  0  0  0  0  0  0  0  0  0  0  0
   20.3170   -4.7181    0.0000 C   0  0  0  0  0  0  0  0  0  0  0  0
   21.6160   -3.9681    0.0000 C   0  0  0  0  0  0  0  0  0  0  0  0
   23.3307   -4.9581    0.0000 C   0  0  0  0  0  0  0  0  0  0  0  0
   24.6298   -4.2081    0.0000 O   0  0  0  0  0  0  0  0  0  0  0  0
   22.5802   -2.8191    0.0000 O   0  0  0  0  0  0  0  0  0  0  0  0
   19.1507   -2.3391    0.0000 O   0  0  0  0  0  0  0  0  0  0  0  0
   18.6377   -0.9295    0.0000 C   0  0  0  0  0  0  0  0  0  0  0  0
   19.6019    0.2195    0.0000 C   0  0  0  0  0  0  0  0  0  0  0  0
   17.1605   -0.6691    0.0000 O   0  0  0  0  0  0  0  0  0  0  0  0
  1  2  2  0
  2  3  1  0
  3  4  1  0
  4  5  1  0
  5  6  1  0
  6  7  1  0
  7  8  1  0
  8  9  1  0
  9 10  1  0
 10 11  1  0
 11 12  1  0
 12 13  1  0
 13 14  1  0
 14 15  1  0
 15 16  1  0
 16 17  1  0
 17 18  1  0
 16 19  1  0
 14 20  1  0
 20 21  1  0
 21 22  1  0
 21 23  2  0
M  END
>  <cdk:Title>  (369) 
ZINC15270207

>  <1A2>  (369) 
N

>  <2A6>  (369) 
N

>  <2B6>  (369) 
N

>  <2C8>  (369) 
N

>  <2C9>  (369) 
N

>  <2C19>  (369) 
N

>  <2D6>  (369) 
N

>  <2E1>  (369) 
N

>  <3A4>  (369) 
N

>  <Citation>  (369) 
Nucleic Acids Res. 2018. Jan 4;46(D1):D608-17. PMID:29140435
Nucleic Acids Res. 2018 Jan 4;46(D1):D1074-D1082. PMID:29126136
Nucleic Acids Res., 45:D380-388 (2017).  PMID:27924025
Nucleic Acids Res. 2016 Jan 4;44(D1):D1202-13. PMID:26400175

>  <ROMol>  (369) 
<rdkit.Chem.rdchem.Mol object at 0x7c2905d325e0>

>  <Drug_like>  (369) 
True

$$$$
ZINC1579641
     RDKit          2D

 20 20  0  0  0  0  0  0  0  0999 V2000
   -5.4292    3.4992    0.0000 O   0  0  0  0  0  0  0  0  0  0  0  0
   -4.6792    4.7983    0.0000 C   0  0  0  0  0  0  0  0  0  0  0  0
   -5.4292    6.0973    0.0000 O   0  0  0  0  0  0  0  0  0  0  0  0
   -3.1792    4.7983    0.0000 C   0  0  0  0  0  0  0  0  0  0  0  0
   -2.4292    3.4992    0.0000 C   0  0  0  0  0  0  0  0  0  0  0  0
   -0.9292    3.4992    0.0000 N   0  0  0  0  0  0  0  0  0  0  0  0
   -0.1792    4.7983    0.0000 C   0  0  0  0  0  0  0  0  0  0  0  0
   -0.9292    6.0973    0.0000 O   0  0  0  0  0  0  0  0  0  0  0  0
    1.3208    4.7983    0.0000 C   0  0  0  0  0  0  0  0  0  0  0  0
    1.0603    6.2755    0.0000 N   0  0  0  0  0  0  0  0  0  0  0  0
    2.0708    3.4992    0.0000 C   0  0  0  0  0  0  0  0  0  0  0  0
    3.5708    3.4992    0.0000 C   0  0  0  0  0  0  0  0  0  0  0  0
    4.3208    2.1992    0.0000 C   0  0  0  0  0  0  0  0  0  0  0  0
    5.8208    2.1992    0.0000 C   0  0  0  0  0  0  0  0  0  0  0  0
    6.5708    3.4992    0.0000 C   0  0  0  0  0  0  0  0  0  0  0  0
    5.8208    4.7992    0.0000 C   0  0  0  0  0  0  0  0  0  0  0  0
    4.3208    4.7992    0.0000 C   0  0  0  0  0  0  0  0  0  0  0  0
   -2.1688    2.0220    0.0000 C   0  0  0  0  0  0  0  0  0  0  0  0
   -0.7592    1.5090    0.0000 O   0  0  0  0  0  0  0  0  0  0  0  0
   -3.3178    1.0579    0.0000 O   0  0  0  0  0  0  0  0  0  0  0  0
  1  2  2  0
  2  3  1  0
  2  4  1  0
  4  5  1  0
  5  6  1  0
  6  7  1  0
  7  8  2  0
  7  9  1  0
  9 10  1  0
  9 11  1  0
 11 12  1  0
 12 13  2  0
 13 14  1  0
 14 15  2  0
 15 16  1  0
 16 17  2  0
 12 17  1  0
  5 18  1  0
 18 19  2  0
 18 20  1  0
M  END
>  <cdk:Title>  (370) 
ZINC1579641

>  <1A2>  (370) 
N

>  <2A6>  (370) 
N

>  <2B6>  (370) 
N

>  <2C8>  (370) 
N

>  <2C9>  (370) 
N

>  <2C19>  (370) 
N

>  <2D6>  (370) 
N

>  <2E1>  (370) 
N

>  <3A4>  (370) 
N

>  <Citation>  (370) 
Nucleic Acids Res. 2018. Jan 4;46(D1):D608-17. PMID:29140435
Nucleic Acids Res. 2018 Jan 4;46(D1):D1074-D1082. PMID:29126136
Nucleic Acids Res., 45:D380-388 (2017).  PMID:27924025
Nucleic Acids Res. 2016 Jan 4;44(D1):D1202-13. PMID:26400175

>  <ROMol>  (370) 
<rdkit.Chem.rdchem.Mol object at 0x7c2905d32650>

>  <Drug_like>  (370) 
True

$$$$
Madecassic acid
     RDKit          2D

 36 40  0  0  0  0  0  0  0  0999 V2000
   -5.6209    2.2710    0.0000 C   0  0  0  0  0  0  0  0  0  0  0  0
   -6.9209    1.5210    0.0000 C   0  0  0  0  0  0  0  0  0  0  0  0
   -6.9209    0.0210    0.0000 C   0  0  0  0  0  0  0  0  0  0  0  0
   -5.6209   -0.7290    0.0000 C   0  0  0  0  0  0  0  0  0  0  0  0
   -4.3209    0.0210    0.0000 C   0  0  0  0  0  0  0  0  0  0  0  0
   -3.0209   -0.7290    0.0000 C   0  0  0  0  0  0  0  0  0  0  0  0
   -1.7309    0.0210    0.0000 C   0  0  0  0  0  0  0  0  0  0  0  0
   -1.7309    1.5210    0.0000 C   0  0  0  0  0  0  0  0  0  0  0  0
   -3.0209    2.2710    0.0000 C   0  0  0  0  0  0  0  0  0  0  0  0
   -4.3209    1.5210    0.0000 C   0  0  0  0  0  0  0  0  0  0  0  0
   -3.8104    4.4164    0.0000 C   0  0  0  0  0  0  0  0  0  0  0  0
   -3.0209    3.7710    0.0000 C   0  0  0  0  0  0  0  0  0  0  0  0
   -1.7309    4.5210    0.0000 C   0  0  0  0  0  0  0  0  0  0  0  0
   -0.4309    3.7710    0.0000 C   0  0  0  0  0  0  0  0  0  0  0  0
   -0.4309    2.2710    0.0000 C   0  0  0  0  0  0  0  0  0  0  0  0
    0.8691    1.5210    0.0000 C   0  0  0  0  0  0  0  0  0  0  0  0
    2.1691    2.2710    0.0000 C   0  0  0  0  0  0  0  0  0  0  0  0
    2.1691    3.7710    0.0000 C   0  0  0  0  0  0  0  0  0  0  0  0
    0.8691    4.5210    0.0000 C   0  0  0  0  0  0  0  0  0  0  0  0
    0.8691    6.0210    0.0000 C   0  0  0  0  0  0  0  0  0  0  0  0
    2.1691    6.7710    0.0000 C   0  0  0  0  0  0  0  0  0  0  0  0
    3.4691    6.0210    0.0000 C   0  0  0  0  0  0  0  0  0  0  0  0
    3.4691    4.5210    0.0000 C   0  0  0  0  0  0  0  0  0  0  0  0
    3.7501    8.6557    0.0000 C   0  0  0  0  0  0  0  0  0  0  0  0
   -0.1359    8.7840    0.0000 C   0  0  0  0  0  0  0  0  0  0  0  0
    4.7149    2.3006    0.0000 C   0  0  0  0  0  0  0  0  0  0  0  0
    6.0141    3.0504    0.0000 O   0  0  0  0  0  0  0  0  0  0  0  0
    4.7147    0.8006    0.0000 O   0  0  0  0  0  0  0  0  0  0  0  0
   -0.7748    0.3211    0.0000 C   0  0  0  0  0  0  0  0  0  0  0  0
    0.8149    0.0506    0.0000 C   0  0  0  0  0  0  0  0  0  0  0  0
   -4.9080   -2.9834    0.0000 O   0  0  0  0  0  0  0  0  0  0  0  0
   -7.2020   -2.6136    0.0000 C   0  0  0  0  0  0  0  0  0  0  0  0
   -6.6888   -4.0231    0.0000 O   0  0  0  0  0  0  0  0  0  0  0  0
   -4.0399   -2.6136    0.0000 C   0  0  0  0  0  0  0  0  0  0  0  0
   -8.3982    0.2814    0.0000 O   0  0  0  0  0  0  0  0  0  0  0  0
   -7.4337    2.9307    0.0000 O   0  0  0  0  0  0  0  0  0  0  0  0
  1  2  1  0
  2  3  1  0
  3  4  1  0
  4  5  1  0
  5  6  1  0
  6  7  1  0
  7  8  1  0
  8  9  1  0
  9 10  1  0
  1 10  1  0
  5 10  1  0
 10 11  1  1
  9 12  1  0
 12 13  1  0
 13 14  2  0
 14 15  1  0
  8 15  1  0
 15 16  1  0
 16 17  1  0
 17 18  1  0
 18 19  1  0
 14 19  1  0
 19 20  1  0
 20 21  1  0
 21 22  1  0
 22 23  1  0
 18 23  1  0
 21 24  1  0
 20 25  1  0
 18 26  1  1
 26 27  1  0
 26 28  2  0
 15 29  1  6
  8 30  1  1
  6 31  1  0
  4 32  1  0
 32 33  1  0
  4 34  1  1
  3 35  1  0
  2 36  1  0
M  END
>  <cdk:Title>  (371) 
Madecassic acid

>  <1A2>  (371) 
N

>  <2A6>  (371) 
N

>  <2B6>  (371) 
N

>  <2C8>  (371) 
N

>  <2C9>  (371) 
N

>  <2C19>  (371) 
N

>  <2D6>  (371) 
N

>  <2E1>  (371) 
N

>  <3A4>  (371) 
N

>  <Citation>  (371) 
Nucleic Acids Res. 2018. Jan 4;46(D1):D608-17. PMID:29140435
Nucleic Acids Res. 2018 Jan 4;46(D1):D1074-D1082. PMID:29126136
Nucleic Acids Res., 45:D380-388 (2017).  PMID:27924025
Nucleic Acids Res. 2016 Jan 4;44(D1):D1202-13. PMID:26400175

>  <ROMol>  (371) 
<rdkit.Chem.rdchem.Mol object at 0x7c2905d32730>

>  <Drug_like>  (371) 
True

$$$$
7-Methylinosine
     RDKit          2D

 20 22  0  0  0  0  0  0  0  0999 V2000
    1.9541   -4.4065    0.0000 O   0  0  0  0  0  0  0  0  0  0  0  0
    1.7973   -2.9186    0.0000 C   0  0  0  0  0  0  0  0  0  0  0  0
    1.3320   -1.4926    0.0000 N   0  0  0  0  0  0  0  0  0  0  0  0
   -0.0980   -1.0326    0.0000 C   0  0  0  0  0  0  0  0  0  0  0  0
   -1.3980   -1.7826    0.0000 N   0  0  0  0  0  0  0  0  0  0  0  0
   -2.6980   -1.0326    0.0000 C   0  0  0  0  0  0  0  0  0  0  0  0
   -2.6980    0.4674    0.0000 N   0  0  0  0  0  0  0  0  0  0  0  0
   -1.3980    1.2174    0.0000 C   0  0  0  0  0  0  0  0  0  0  0  0
   -1.3980    2.7174    0.0000 O   0  0  0  0  0  0  0  0  0  0  0  0
   -0.0980    0.4674    0.0000 C   0  0  0  0  0  0  0  0  0  0  0  0
    1.3320    0.9274    0.0000 N   0  0  0  0  0  0  0  0  0  0  0  0
    2.2120   -0.2826    0.0000 C   0  0  0  0  0  0  0  0  0  0  0  0
    1.7973    2.3535    0.0000 C   0  0  0  0  0  0  0  0  0  0  0  0
    3.1598   -2.3092    0.0000 C   0  0  0  0  0  0  0  0  0  0  0  0
    4.7604   -1.1436    0.0000 O   0  0  0  0  0  0  0  0  0  0  0  0
    4.1644   -3.4231    0.0000 C   0  0  0  0  0  0  0  0  0  0  0  0
    5.3781   -4.3045    0.0000 O   0  0  0  0  0  0  0  0  0  0  0  0
    3.4180   -4.7157    0.0000 C   0  0  0  0  0  0  0  0  0  0  0  0
    2.9556   -6.1427    0.0000 C   0  0  0  0  0  0  0  0  0  0  0  0
    3.9603   -7.2565    0.0000 O   0  0  0  0  0  0  0  0  0  0  0  0
  1  2  1  0
  2  3  1  0
  3  4  1  0
  4  5  1  0
  5  6  1  0
  6  7  2  0
  7  8  1  0
  8  9  2  0
  8 10  1  0
  4 10  2  0
 10 11  1  0
 11 12  1  0
  3 12  2  0
 11 13  1  0
  2 14  1  0
 14 15  1  0
 14 16  1  0
 16 17  1  0
 16 18  1  0
  1 18  1  0
 18 19  1  0
 19 20  1  0
M  CHG  1   3   1
M  END
>  <cdk:Title>  (372) 
7-Methylinosine

>  <1A2>  (372) 
N

>  <2A6>  (372) 
N

>  <2B6>  (372) 
N

>  <2C8>  (372) 
N

>  <2C9>  (372) 
N

>  <2C19>  (372) 
N

>  <2D6>  (372) 
N

>  <2E1>  (372) 
N

>  <3A4>  (372) 
N

>  <Citation>  (372) 
Nucleic Acids Res. 2018. Jan 4;46(D1):D608-17. PMID:29140435
Nucleic Acids Res. 2018 Jan 4;46(D1):D1074-D1082. PMID:29126136
Nucleic Acids Res., 45:D380-388 (2017).  PMID:27924025
Nucleic Acids Res. 2016 Jan 4;44(D1):D1202-13. PMID:26400175

>  <ROMol>  (372) 
<rdkit.Chem.rdchem.Mol object at 0x7c2905d327a0>

>  <Drug_like>  (372) 
True

$$$$
UNII-34in72430S component rqosxgwcilnikb-qmmmgpobsa-N
     RDKit          2D

 10  9  0  0  0  0  0  0  0  0999 V2000
    9.5090   -0.9900    0.0000 C   0  0  0  0  0  0  0  0  0  0  0  0
    8.2099   -0.2400    0.0000 C   0  0  0  0  0  0  0  0  0  0  0  0
    6.9109   -0.9900    0.0000 C   0  0  0  0  0  0  0  0  0  0  0  0
    5.1962   -0.0000    0.0000 C   0  0  0  0  0  0  0  0  0  0  0  0
    3.4814   -0.9900    0.0000 C   0  0  0  0  0  0  0  0  0  0  0  0
    1.7667    0.0000    0.0000 C   0  0  0  0  0  0  0  0  0  0  0  0
    0.4677   -0.7500    0.0000 C   0  0  0  0  0  0  0  0  0  0  0  0
   -0.8314    0.0000    0.0000 O   0  0  0  0  0  0  0  0  0  0  0  0
    2.5172   -2.1391    0.0000 S   0  0  0  0  0  0  0  0  0  0  0  0
    3.0303   -3.5486    0.0000 C   0  0  0  0  0  0  0  0  0  0  0  0
  1  2  1  0
  2  3  1  0
  3  4  1  0
  4  5  1  0
  5  6  1  0
  6  7  1  0
  7  8  2  0
  5  9  1  0
  9 10  1  0
M  END
>  <cdk:Title>  (373) 
UNII-34in72430S component rqosxgwcilnikb-qmmmgpobsa-N

>  <1A2>  (373) 
N

>  <2A6>  (373) 
N

>  <2B6>  (373) 
N

>  <2C8>  (373) 
N

>  <2C9>  (373) 
N

>  <2C19>  (373) 
N

>  <2D6>  (373) 
N

>  <2E1>  (373) 
N

>  <3A4>  (373) 
N

>  <Citation>  (373) 
Nucleic Acids Res. 2018. Jan 4;46(D1):D608-17. PMID:29140435
Nucleic Acids Res. 2018 Jan 4;46(D1):D1074-D1082. PMID:29126136
Nucleic Acids Res., 45:D380-388 (2017).  PMID:27924025
Nucleic Acids Res. 2016 Jan 4;44(D1):D1202-13. PMID:26400175

>  <ROMol>  (373) 
<rdkit.Chem.rdchem.Mol object at 0x7c2905d32810>

>  <Drug_like>  (373) 
True

$$$$
D-Xylitol
     RDKit          2D

 10  9  0  0  0  0  0  0  0  0999 V2000
    3.4814   -0.9295    0.0000 C   0  0  0  0  0  0  0  0  0  0  0  0
    5.1962   -1.9195    0.0000 C   0  0  0  0  0  0  0  0  0  0  0  0
    7.3266   -0.6895    0.0000 C   0  0  0  0  0  0  0  0  0  0  0  0
    8.6256   -1.4395    0.0000 C   0  0  0  0  0  0  0  0  0  0  0  0
    9.9247   -0.6895    0.0000 O   0  0  0  0  0  0  0  0  0  0  0  0
    8.2908    0.4595    0.0000 O   0  0  0  0  0  0  0  0  0  0  0  0
    4.2320   -3.0686    0.0000 O   0  0  0  0  0  0  0  0  0  0  0  0
    0.9353   -2.3995    0.0000 C   0  0  0  0  0  0  0  0  0  0  0  0
   -0.3637   -1.6495    0.0000 O   0  0  0  0  0  0  0  0  0  0  0  0
    4.4456    0.2195    0.0000 O   0  0  0  0  0  0  0  0  0  0  0  0
  1  2  1  0
  2  3  1  0
  3  4  1  0
  4  5  1  0
  3  6  1  0
  2  7  1  0
  1  8  1  0
  8  9  1  0
  1 10  1  0
M  END
>  <cdk:Title>  (374) 
D-Xylitol

>  <1A2>  (374) 
N

>  <2A6>  (374) 
N

>  <2B6>  (374) 
N

>  <2C8>  (374) 
N

>  <2C9>  (374) 
N

>  <2C19>  (374) 
N

>  <2D6>  (374) 
N

>  <2E1>  (374) 
N

>  <3A4>  (374) 
N

>  <Citation>  (374) 
Nucleic Acids Res. 2018. Jan 4;46(D1):D608-17. PMID:29140435
Nucleic Acids Res. 2018 Jan 4;46(D1):D1074-D1082. PMID:29126136
Nucleic Acids Res., 45:D380-388 (2017).  PMID:27924025
Nucleic Acids Res. 2016 Jan 4;44(D1):D1202-13. PMID:26400175

>  <ROMol>  (374) 
<rdkit.Chem.rdchem.Mol object at 0x7c2905d32960>

>  <Drug_like>  (374) 
True

$$$$
1_2-Cyclohexanedione
     RDKit          2D

  8  8  0  0  0  0  0  0  0  0999 V2000
   -0.4782    1.1989    0.0000 C   0  0  0  0  0  0  0  0  0  0  0  0
   -1.7728    0.4568    0.0000 C   0  0  0  0  0  0  0  0  0  0  0  0
   -1.7732   -1.0441    0.0000 C   0  0  0  0  0  0  0  0  0  0  0  0
   -0.4742   -1.7941    0.0000 C   0  0  0  0  0  0  0  0  0  0  0  0
    0.8253   -1.0432    0.0000 C   0  0  0  0  0  0  0  0  0  0  0  0
    0.8208    0.4489    0.0000 C   0  0  0  0  0  0  0  0  0  0  0  0
    2.1256   -1.7911    0.0000 O   0  0  0  0  0  0  0  0  0  0  0  0
   -0.4740   -3.2941    0.0000 O   0  0  0  0  0  0  0  0  0  0  0  0
  1  2  1  0
  2  3  1  0
  3  4  1  0
  4  5  1  0
  5  6  1  0
  1  6  1  0
  5  7  2  0
  4  8  2  0
M  END
>  <cdk:Title>  (375) 
1_2-Cyclohexanedione

>  <1A2>  (375) 
N

>  <2A6>  (375) 
N

>  <2B6>  (375) 
N

>  <2C8>  (375) 
N

>  <2C9>  (375) 
N

>  <2C19>  (375) 
N

>  <2D6>  (375) 
N

>  <2E1>  (375) 
N

>  <3A4>  (375) 
N

>  <Citation>  (375) 
Nucleic Acids Res. 2018. Jan 4;46(D1):D608-17. PMID:29140435
Nucleic Acids Res. 2018 Jan 4;46(D1):D1074-D1082. PMID:29126136
Nucleic Acids Res., 45:D380-388 (2017).  PMID:27924025
Nucleic Acids Res. 2016 Jan 4;44(D1):D1202-13. PMID:26400175

>  <ROMol>  (375) 
<rdkit.Chem.rdchem.Mol object at 0x7c2905d32a40>

>  <Drug_like>  (375) 
True

$$$$
(-)-Borneol
     RDKit          2D

 11 12  0  0  0  0  0  0  0  0999 V2000
    4.1110    0.9767    0.0000 C   0  0  0  0  0  0  0  0  0  0  0  0
    2.8110    0.2267    0.0000 C   0  0  0  0  0  0  0  0  0  0  0  0
    2.8110   -1.2733    0.0000 C   0  0  0  0  0  0  0  0  0  0  0  0
    4.1110   -2.0233    0.0000 C   0  0  0  0  0  0  0  0  0  0  0  0
    5.4010   -1.2733    0.0000 C   0  0  0  0  0  0  0  0  0  0  0  0
    5.4010    0.2267    0.0000 C   0  0  0  0  0  0  0  0  0  0  0  0
    6.8779   -0.0353    0.0000 O   0  0  0  0  0  0  0  0  0  0  0  0
    3.2410   -0.5233    0.0000 C   0  0  0  0  0  0  0  0  0  0  0  0
    0.9900    1.3680    0.0000 C   0  0  0  0  0  0  0  0  0  0  0  0
    0.9900   -2.4146    0.0000 C   0  0  0  0  0  0  0  0  0  0  0  0
    4.1143    2.9567    0.0000 C   0  0  0  0  0  0  0  0  0  0  0  0
  1  2  1  0
  2  3  1  0
  3  4  1  0
  4  5  1  0
  5  6  1  0
  1  6  1  0
  6  7  1  0
  4  8  1  0
  1  8  1  0
  8  9  1  0
  8 10  1  0
  1 11  1  1
M  END
>  <cdk:Title>  (376) 
(-)-Borneol

>  <1A2>  (376) 
N

>  <2A6>  (376) 
N

>  <2B6>  (376) 
N

>  <2C8>  (376) 
N

>  <2C9>  (376) 
N

>  <2C19>  (376) 
N

>  <2D6>  (376) 
N

>  <2E1>  (376) 
N

>  <3A4>  (376) 
N

>  <Citation>  (376) 
Nucleic Acids Res. 2018. Jan 4;46(D1):D608-17. PMID:29140435
Nucleic Acids Res. 2018 Jan 4;46(D1):D1074-D1082. PMID:29126136
Nucleic Acids Res., 45:D380-388 (2017).  PMID:27924025
Nucleic Acids Res. 2016 Jan 4;44(D1):D1202-13. PMID:26400175

>  <ROMol>  (376) 
<rdkit.Chem.rdchem.Mol object at 0x7c2905d32b20>

>  <Drug_like>  (376) 
True

$$$$
(S)-9-Hydroxy-10-undecenoic acid
     RDKit          2D

 14 13  0  0  0  0  0  0  0  0999 V2000
   15.5365   -2.4900    0.0000 C   0  0  0  0  0  0  0  0  0  0  0  0
   15.5365   -0.9900    0.0000 C   0  0  0  0  0  0  0  0  0  0  0  0
   14.2375   -0.2400    0.0000 C   0  0  0  0  0  0  0  0  0  0  0  0
   12.9384   -0.9900    0.0000 C   0  0  0  0  0  0  0  0  0  0  0  0
   11.2237   -0.0000    0.0000 C   0  0  0  0  0  0  0  0  0  0  0  0
    9.0933   -1.2300    0.0000 C   0  0  0  0  0  0  0  0  0  0  0  0
    7.3785   -0.2400    0.0000 C   0  0  0  0  0  0  0  0  0  0  0  0
    5.6638   -1.2300    0.0000 C   0  0  0  0  0  0  0  0  0  0  0  0
    3.9491   -0.2400    0.0000 C   0  0  0  0  0  0  0  0  0  0  0  0
    2.6500   -0.9900    0.0000 C   0  0  0  0  0  0  0  0  0  0  0  0
    1.3510   -0.2400    0.0000 C   0  0  0  0  0  0  0  0  0  0  0  0
    1.3510    1.2600    0.0000 O   0  0  0  0  0  0  0  0  0  0  0  0
    0.0520   -0.9900    0.0000 O   0  0  0  0  0  0  0  0  0  0  0  0
   15.2016    0.9091    0.0000 O   0  0  0  0  0  0  0  0  0  0  0  0
  1  2  2  0
  2  3  1  0
  3  4  1  0
  4  5  1  0
  5  6  1  0
  6  7  1  0
  7  8  1  0
  8  9  1  0
  9 10  1  0
 10 11  1  0
 11 12  2  0
 11 13  1  0
  3 14  1  0
M  END
>  <cdk:Title>  (377) 
(S)-9-Hydroxy-10-undecenoic acid

>  <1A2>  (377) 
N

>  <2A6>  (377) 
N

>  <2B6>  (377) 
N

>  <2C8>  (377) 
N

>  <2C9>  (377) 
N

>  <2C19>  (377) 
N

>  <2D6>  (377) 
N

>  <2E1>  (377) 
N

>  <3A4>  (377) 
N

>  <Citation>  (377) 
Nucleic Acids Res. 2018. Jan 4;46(D1):D608-17. PMID:29140435
Nucleic Acids Res. 2018 Jan 4;46(D1):D1074-D1082. PMID:29126136
Nucleic Acids Res., 45:D380-388 (2017).  PMID:27924025
Nucleic Acids Res. 2016 Jan 4;44(D1):D1202-13. PMID:26400175

>  <ROMol>  (377) 
<rdkit.Chem.rdchem.Mol object at 0x7c2905d32b90>

>  <Drug_like>  (377) 
True

$$$$
D-Methionine
     RDKit          2D

  9  8  0  0  0  0  0  0  0  0999 V2000
    3.8971    3.7500    0.0000 O   0  0  0  0  0  0  0  0  0  0  0  0
    5.1962    4.5000    0.0000 C   0  0  0  0  0  0  0  0  0  0  0  0
    5.1962    6.0000    0.0000 O   0  0  0  0  0  0  0  0  0  0  0  0
    6.4952    3.7500    0.0000 C   0  0  0  0  0  0  0  0  0  0  0  0
    7.0082    5.1595    0.0000 N   0  0  0  0  0  0  0  0  0  0  0  0
    6.4952    2.2500    0.0000 C   0  0  0  0  0  0  0  0  0  0  0  0
    7.7942    1.5000    0.0000 C   0  0  0  0  0  0  0  0  0  0  0  0
    9.0933    2.2500    0.0000 S   0  0  0  0  0  0  0  0  0  0  0  0
   10.3923    1.5000    0.0000 C   0  0  0  0  0  0  0  0  0  0  0  0
  1  2  2  0
  2  3  1  0
  2  4  1  0
  4  5  1  0
  4  6  1  0
  6  7  1  0
  7  8  1  0
  8  9  1  0
M  END
>  <cdk:Title>  (378) 
D-Methionine

>  <1A2>  (378) 
N

>  <2A6>  (378) 
N

>  <2B6>  (378) 
N

>  <2C8>  (378) 
N

>  <2C9>  (378) 
N

>  <2C19>  (378) 
N

>  <2D6>  (378) 
N

>  <2E1>  (378) 
N

>  <3A4>  (378) 
N

>  <Citation>  (378) 
Nucleic Acids Res. 2018. Jan 4;46(D1):D608-17. PMID:29140435
Nucleic Acids Res. 2018 Jan 4;46(D1):D1074-D1082. PMID:29126136
Nucleic Acids Res., 45:D380-388 (2017).  PMID:27924025
Nucleic Acids Res. 2016 Jan 4;44(D1):D1202-13. PMID:26400175

>  <ROMol>  (378) 
<rdkit.Chem.rdchem.Mol object at 0x7c2905d32c70>

>  <Drug_like>  (378) 
True

$$$$
Imidazole acetol-phosphate
     RDKit          2D

 14 14  0  0  0  0  0  0  0  0999 V2000
   -0.9610    4.0872    0.0000 C   0  0  0  0  0  0  0  0  0  0  0  0
   -0.0528    5.2810    0.0000 C   0  0  0  0  0  0  0  0  0  0  0  0
    1.4352    5.0913    0.0000 C   0  0  0  0  0  0  0  0  0  0  0  0
    2.0149    3.7079    0.0000 O   0  0  0  0  0  0  0  0  0  0  0  0
    3.5029    3.5182    0.0000 P   0  0  0  0  0  0  0  0  0  0  0  0
    4.4111    4.7120    0.0000 O   0  0  0  0  0  0  0  0  0  0  0  0
    3.0577    2.0858    0.0000 O   0  0  0  0  0  0  0  0  0  0  0  0
    4.8363    2.8311    0.0000 O   0  0  0  0  0  0  0  0  0  0  0  0
   -0.6325    6.6644    0.0000 O   0  0  0  0  0  0  0  0  0  0  0  0
   -2.4490    4.2768    0.0000 C   0  0  0  0  0  0  0  0  0  0  0  0
   -3.4810    3.1845    0.0000 C   0  0  0  0  0  0  0  0  0  0  0  0
   -4.8321    3.8247    0.0000 N   0  0  0  0  0  0  0  0  0  0  0  0
   -4.6391    5.3102    0.0000 C   0  0  0  0  0  0  0  0  0  0  0  0
   -3.1680    5.5822    0.0000 N   0  0  0  0  0  0  0  0  0  0  0  0
  1  2  1  0
  2  3  1  0
  3  4  1  0
  4  5  1  0
  5  6  1  0
  5  7  1  0
  5  8  2  0
  2  9  2  0
  1 10  1  0
 10 11  2  0
 11 12  1  0
 12 13  1  0
 13 14  2  0
 10 14  1  0
M  END
>  <cdk:Title>  (379) 
Imidazole acetol-phosphate

>  <1A2>  (379) 
N

>  <2A6>  (379) 
N

>  <2B6>  (379) 
N

>  <2C8>  (379) 
N

>  <2C9>  (379) 
N

>  <2C19>  (379) 
N

>  <2D6>  (379) 
N

>  <2E1>  (379) 
N

>  <3A4>  (379) 
N

>  <Citation>  (379) 
Nucleic Acids Res. 2018. Jan 4;46(D1):D608-17. PMID:29140435
Nucleic Acids Res. 2018 Jan 4;46(D1):D1074-D1082. PMID:29126136
Nucleic Acids Res., 45:D380-388 (2017).  PMID:27924025
Nucleic Acids Res. 2016 Jan 4;44(D1):D1202-13. PMID:26400175

>  <ROMol>  (379) 
<rdkit.Chem.rdchem.Mol object at 0x7c2905d32ce0>

>  <Drug_like>  (379) 
True

$$$$
Estriol-16-glucuronide
     RDKit          2D

 33 37  0  0  0  0  0  0  0  0999 V2000
    4.7336   -4.1774    0.0000 C   0  0  0  0  0  0  0  0  0  0  0  0
    2.7665   -1.9925    0.0000 C   0  0  0  0  0  0  0  0  0  0  0  0
    2.1552   -3.3632    0.0000 C   0  0  0  0  0  0  0  0  0  0  0  0
    0.6625   -3.5201    0.0000 C   0  0  0  0  0  0  0  0  0  0  0  0
   -0.2187   -2.3063    0.0000 C   0  0  0  0  0  0  0  0  0  0  0  0
    0.3926   -0.9356    0.0000 C   0  0  0  0  0  0  0  0  0  0  0  0
    1.8852   -0.7787    0.0000 C   0  0  0  0  0  0  0  0  0  0  0  0
    2.7640    0.4278    0.0000 C   0  0  0  0  0  0  0  0  0  0  0  0
    4.1870   -0.0343    0.0000 C   0  0  0  0  0  0  0  0  0  0  0  0
    4.1858   -1.5304    0.0000 C   0  0  0  0  0  0  0  0  0  0  0  0
    5.6776   -1.3742    0.0000 O   0  0  0  0  0  0  0  0  0  0  0  0
    4.4991    1.4329    0.0000 O   0  0  0  0  0  0  0  0  0  0  0  0
    5.9258    1.8962    0.0000 C   0  0  0  0  0  0  0  0  0  0  0  0
    5.2295    3.2135    0.0000 C   0  0  0  0  0  0  0  0  0  0  0  0
    6.0414    4.5022    0.0000 C   0  0  0  0  0  0  0  0  0  0  0  0
    7.5458    4.4378    0.0000 C   0  0  0  0  0  0  0  0  0  0  0  0
    8.2421    3.1205    0.0000 C   0  0  0  0  0  0  0  0  0  0  0  0
    7.4432    1.8499    0.0000 O   0  0  0  0  0  0  0  0  0  0  0  0
    9.3541    2.1138    0.0000 C   0  0  0  0  0  0  0  0  0  0  0  0
    9.0383    0.6475    0.0000 O   0  0  0  0  0  0  0  0  0  0  0  0
   10.7820    2.5735    0.0000 O   0  0  0  0  0  0  0  0  0  0  0  0
    8.9744    4.8952    0.0000 O   0  0  0  0  0  0  0  0  0  0  0  0
    6.3627    5.9674    0.0000 O   0  0  0  0  0  0  0  0  0  0  0  0
    4.1180    4.2208    0.0000 O   0  0  0  0  0  0  0  0  0  0  0  0
   -0.4887    0.2782    0.0000 C   0  0  0  0  0  0  0  0  0  0  0  0
   -1.9813    0.1213    0.0000 C   0  0  0  0  0  0  0  0  0  0  0  0
   -2.5926   -1.2493    0.0000 C   0  0  0  0  0  0  0  0  0  0  0  0
   -1.7114   -2.4631    0.0000 C   0  0  0  0  0  0  0  0  0  0  0  0
   -2.3227   -3.8338    0.0000 C   0  0  0  0  0  0  0  0  0  0  0  0
   -3.8153   -3.9907    0.0000 C   0  0  0  0  0  0  0  0  0  0  0  0
   -4.6966   -2.7769    0.0000 C   0  0  0  0  0  0  0  0  0  0  0  0
   -4.0853   -1.4062    0.0000 C   0  0  0  0  0  0  0  0  0  0  0  0
   -6.1884   -2.9330    0.0000 O   0  0  0  0  0  0  0  0  0  0  0  0
  2  1  1  1
  2  3  1  0
  3  4  1  0
  4  5  1  0
  5  6  1  0
  6  7  1  0
  2  7  1  0
  7  8  1  0
  8  9  1  0
  9 10  1  0
  2 10  1  0
 10 11  1  0
  9 12  1  0
 12 13  1  0
 13 14  1  0
 14 15  1  0
 15 16  1  0
 16 17  1  0
 17 18  1  0
 13 18  1  0
 17 19  1  0
 19 20  2  0
 19 21  1  0
 16 22  1  0
 15 23  1  0
 14 24  1  0
  6 25  1  0
 25 26  1  0
 26 27  1  0
 27 28  2  0
  5 28  1  0
 28 29  1  0
 29 30  2  0
 30 31  1  0
 31 32  2  0
 27 32  1  0
 31 33  1  0
M  END
>  <cdk:Title>  (380) 
Estriol-16-glucuronide

>  <1A2>  (380) 
N

>  <2A6>  (380) 
N

>  <2B6>  (380) 
N

>  <2C8>  (380) 
N

>  <2C9>  (380) 
N

>  <2C19>  (380) 
N

>  <2D6>  (380) 
N

>  <2E1>  (380) 
N

>  <3A4>  (380) 
N

>  <Citation>  (380) 
Nucleic Acids Res. 2018. Jan 4;46(D1):D608-17. PMID:29140435
Nucleic Acids Res. 2018 Jan 4;46(D1):D1074-D1082. PMID:29126136
Nucleic Acids Res., 45:D380-388 (2017).  PMID:27924025
Nucleic Acids Res. 2016 Jan 4;44(D1):D1202-13. PMID:26400175

>  <ROMol>  (380) 
<rdkit.Chem.rdchem.Mol object at 0x7c2905d32ea0>

>  <Drug_like>  (380) 
True

$$$$
Alpha-Hydroxy-beta-phenyl-propionic acid
     RDKit          2D

 12 12  0  0  0  0  0  0  0  0999 V2000
   -3.0853    0.5949    0.0000 O   0  0  0  0  0  0  0  0  0  0  0  0
   -2.1211    1.7439    0.0000 C   0  0  0  0  0  0  0  0  0  0  0  0
   -3.4202    2.4939    0.0000 C   0  0  0  0  0  0  0  0  0  0  0  0
   -3.4202    3.9939    0.0000 O   0  0  0  0  0  0  0  0  0  0  0  0
   -4.7192    1.7439    0.0000 O   0  0  0  0  0  0  0  0  0  0  0  0
   -0.8221    2.4939    0.0000 C   0  0  0  0  0  0  0  0  0  0  0  0
    0.4769    1.7439    0.0000 C   0  0  0  0  0  0  0  0  0  0  0  0
    1.7764    2.4948    0.0000 C   0  0  0  0  0  0  0  0  0  0  0  0
    3.0755    1.7448    0.0000 C   0  0  0  0  0  0  0  0  0  0  0  0
    3.0750    0.2439    0.0000 C   0  0  0  0  0  0  0  0  0  0  0  0
    1.7755   -0.5069    0.0000 C   0  0  0  0  0  0  0  0  0  0  0  0
    0.4764    0.2431    0.0000 C   0  0  0  0  0  0  0  0  0  0  0  0
  1  2  1  0
  2  3  1  0
  3  4  2  0
  3  5  1  0
  2  6  1  0
  6  7  1  0
  7  8  2  0
  8  9  1  0
  9 10  2  0
 10 11  1  0
 11 12  2  0
  7 12  1  0
M  END
>  <cdk:Title>  (381) 
Alpha-Hydroxy-beta-phenyl-propionic acid

>  <1A2>  (381) 
N

>  <2A6>  (381) 
N

>  <2B6>  (381) 
N

>  <2C8>  (381) 
N

>  <2C9>  (381) 
N

>  <2C19>  (381) 
N

>  <2D6>  (381) 
N

>  <2E1>  (381) 
N

>  <3A4>  (381) 
N

>  <Citation>  (381) 
Nucleic Acids Res. 2018. Jan 4;46(D1):D608-17. PMID:29140435
Nucleic Acids Res. 2018 Jan 4;46(D1):D1074-D1082. PMID:29126136
Nucleic Acids Res., 45:D380-388 (2017).  PMID:27924025
Nucleic Acids Res. 2016 Jan 4;44(D1):D1202-13. PMID:26400175

>  <ROMol>  (381) 
<rdkit.Chem.rdchem.Mol object at 0x7c2905d32f80>

>  <Drug_like>  (381) 
True

$$$$
1_2_3_4_5_6-Hexahydro-5-(1-hydroxyethylidene)-7H-cyclopenta[b]pyridin-7-one
     RDKit          2D

 13 14  0  0  0  0  0  0  0  0999 V2000
    3.6529    2.9461    0.0000 C   0  0  0  0  0  0  0  0  0  0  0  0
    2.1853    2.6360    0.0000 C   0  0  0  0  0  0  0  0  0  0  0  0
    1.7200    1.2100    0.0000 C   0  0  0  0  0  0  0  0  0  0  0  0
    0.2957    0.7518    0.0000 C   0  0  0  0  0  0  0  0  0  0  0  0
    0.2928   -0.7443    0.0000 C   0  0  0  0  0  0  0  0  0  0  0  0
    1.7189   -1.2162    0.0000 C   0  0  0  0  0  0  0  0  0  0  0  0
    2.6035   -0.0049    0.0000 C   0  0  0  0  0  0  0  0  0  0  0  0
    4.0957   -0.1659    0.0000 C   0  0  0  0  0  0  0  0  0  0  0  0
    4.7032   -1.5383    0.0000 C   0  0  0  0  0  0  0  0  0  0  0  0
    3.8186   -2.7496    0.0000 C   0  0  0  0  0  0  0  0  0  0  0  0
    2.3264   -2.5886    0.0000 N   0  0  0  0  0  0  0  0  0  0  0  0
   -0.9240   -1.6215    0.0000 O   0  0  0  0  0  0  0  0  0  0  0  0
    1.1830    3.7520    0.0000 O   0  0  0  0  0  0  0  0  0  0  0  0
  1  2  1  0
  2  3  2  0
  3  4  1  0
  4  5  1  0
  5  6  1  0
  6  7  2  0
  3  7  1  0
  7  8  1  0
  8  9  1  0
  9 10  1  0
 10 11  1  0
  6 11  1  0
  5 12  2  0
  2 13  1  0
M  END
>  <cdk:Title>  (382) 
1_2_3_4_5_6-Hexahydro-5-(1-hydroxyethylidene)-7H-cyclopenta[b]pyridin-7-one

>  <1A2>  (382) 
N

>  <2A6>  (382) 
N

>  <2B6>  (382) 
N

>  <2C8>  (382) 
N

>  <2C9>  (382) 
N

>  <2C19>  (382) 
N

>  <2D6>  (382) 
N

>  <2E1>  (382) 
N

>  <3A4>  (382) 
N

>  <Citation>  (382) 
Nucleic Acids Res. 2018. Jan 4;46(D1):D608-17. PMID:29140435
Nucleic Acids Res. 2018 Jan 4;46(D1):D1074-D1082. PMID:29126136
Nucleic Acids Res., 45:D380-388 (2017).  PMID:27924025
Nucleic Acids Res. 2016 Jan 4;44(D1):D1202-13. PMID:26400175

>  <ROMol>  (382) 
<rdkit.Chem.rdchem.Mol object at 0x7c2905d32ff0>

>  <Drug_like>  (382) 
True

$$$$
7a-Hydroxydehydroepiandrosterone
     RDKit          2D

 22 25  0  0  0  0  0  0  0  0999 V2000
    1.2815   -8.0755    0.0000 O   0  0  0  0  0  0  0  0  0  0  0  0
    0.7688   -6.6659    0.0000 C   0  0  0  0  0  0  0  0  0  0  0  0
    0.7688   -5.1659    0.0000 C   0  0  0  0  0  0  0  0  0  0  0  0
   -0.5312   -4.4159    0.0000 C   0  0  0  0  0  0  0  0  0  0  0  0
   -1.8312   -5.1659    0.0000 C   0  0  0  0  0  0  0  0  0  0  0  0
   -1.8312   -6.6659    0.0000 C   0  0  0  0  0  0  0  0  0  0  0  0
   -0.5312   -7.4159    0.0000 C   0  0  0  0  0  0  0  0  0  0  0  0
   -3.1312   -7.4159    0.0000 C   0  0  0  0  0  0  0  0  0  0  0  0
   -4.4312   -6.6659    0.0000 C   0  0  0  0  0  0  0  0  0  0  0  0
   -4.4312   -5.1659    0.0000 C   0  0  0  0  0  0  0  0  0  0  0  0
   -3.1312   -4.4159    0.0000 C   0  0  0  0  0  0  0  0  0  0  0  0
   -5.9085   -6.4056    0.0000 O   0  0  0  0  0  0  0  0  0  0  0  0
   -1.4874   -3.2160    0.0000 C   0  0  0  0  0  0  0  0  0  0  0  0
   -0.5312   -2.9159    0.0000 C   0  0  0  0  0  0  0  0  0  0  0  0
    0.7688   -2.1659    0.0000 C   0  0  0  0  0  0  0  0  0  0  0  0
    2.0688   -2.9159    0.0000 C   0  0  0  0  0  0  0  0  0  0  0  0
    2.0688   -4.4159    0.0000 C   0  0  0  0  0  0  0  0  0  0  0  0
    3.4988   -4.8759    0.0000 C   0  0  0  0  0  0  0  0  0  0  0  0
    4.3788   -3.6659    0.0000 C   0  0  0  0  0  0  0  0  0  0  0  0
    3.4988   -2.4559    0.0000 C   0  0  0  0  0  0  0  0  0  0  0  0
    3.9641   -1.0299    0.0000 O   0  0  0  0  0  0  0  0  0  0  0  0
    2.3799    0.0076    0.0000 C   0  0  0  0  0  0  0  0  0  0  0  0
  1  2  1  0
  2  3  1  0
  3  4  1  0
  4  5  1  0
  5  6  1  0
  6  7  2  0
  2  7  1  0
  6  8  1  0
  8  9  1  0
  9 10  1  0
 10 11  1  0
  5 11  1  0
  9 12  1  0
  5 13  1  1
  4 14  1  0
 14 15  1  0
 15 16  1  0
 16 17  1  0
  3 17  1  0
 17 18  1  0
 18 19  1  0
 19 20  1  0
 16 20  1  0
 20 21  2  0
 16 22  1  1
M  END
>  <cdk:Title>  (383) 
7a-Hydroxydehydroepiandrosterone

>  <1A2>  (383) 
N

>  <2A6>  (383) 
N

>  <2B6>  (383) 
N

>  <2C8>  (383) 
N

>  <2C9>  (383) 
N

>  <2C19>  (383) 
N

>  <2D6>  (383) 
N

>  <2E1>  (383) 
N

>  <3A4>  (383) 
N

>  <Citation>  (383) 
Nucleic Acids Res. 2018. Jan 4;46(D1):D608-17. PMID:29140435
Nucleic Acids Res. 2018 Jan 4;46(D1):D1074-D1082. PMID:29126136
Nucleic Acids Res., 45:D380-388 (2017).  PMID:27924025
Nucleic Acids Res. 2016 Jan 4;44(D1):D1202-13. PMID:26400175

>  <ROMol>  (383) 
<rdkit.Chem.rdchem.Mol object at 0x7c2905d33060>

>  <Drug_like>  (383) 
True

$$$$
8-Hydroxy-2-methoxy-6-methyl-1_4-naphthoquinone
     RDKit          2D

 16 17  0  0  0  0  0  0  0  0999 V2000
    3.8989    1.5002    0.0000 C   0  0  0  0  0  0  0  0  0  0  0  0
    2.6000    0.7500    0.0000 C   0  0  0  0  0  0  0  0  0  0  0  0
    1.3000    1.5000    0.0000 C   0  0  0  0  0  0  0  0  0  0  0  0
    0.0000    0.7500    0.0000 C   0  0  0  0  0  0  0  0  0  0  0  0
   -1.3000    1.5000    0.0000 C   0  0  0  0  0  0  0  0  0  0  0  0
   -2.6000    0.7500    0.0000 C   0  0  0  0  0  0  0  0  0  0  0  0
   -2.6000   -0.7500    0.0000 C   0  0  0  0  0  0  0  0  0  0  0  0
   -1.3000   -1.5000    0.0000 C   0  0  0  0  0  0  0  0  0  0  0  0
    0.0000   -0.7500    0.0000 C   0  0  0  0  0  0  0  0  0  0  0  0
    1.3000   -1.5000    0.0000 C   0  0  0  0  0  0  0  0  0  0  0  0
    2.6000   -0.7500    0.0000 C   0  0  0  0  0  0  0  0  0  0  0  0
    1.3000   -3.0000    0.0000 O   0  0  0  0  0  0  0  0  0  0  0  0
   -1.3000   -3.0000    0.0000 O   0  0  0  0  0  0  0  0  0  0  0  0
   -3.8989   -1.5002    0.0000 O   0  0  0  0  0  0  0  0  0  0  0  0
   -5.1981   -0.7504    0.0000 C   0  0  0  0  0  0  0  0  0  0  0  0
   -1.3000    3.0000    0.0000 O   0  0  0  0  0  0  0  0  0  0  0  0
  1  2  1  0
  2  3  2  0
  3  4  1  0
  4  5  1  0
  5  6  1  0
  6  7  2  0
  7  8  1  0
  8  9  1  0
  4  9  2  0
  9 10  1  0
 10 11  2  0
  2 11  1  0
 10 12  1  0
  8 13  2  0
  7 14  1  0
 14 15  1  0
  5 16  2  0
M  END
>  <cdk:Title>  (384) 
8-Hydroxy-2-methoxy-6-methyl-1_4-naphthoquinone

>  <1A2>  (384) 
N

>  <2A6>  (384) 
N

>  <2B6>  (384) 
N

>  <2C8>  (384) 
N

>  <2C9>  (384) 
N

>  <2C19>  (384) 
N

>  <2D6>  (384) 
N

>  <2E1>  (384) 
N

>  <3A4>  (384) 
N

>  <Citation>  (384) 
Nucleic Acids Res. 2018. Jan 4;46(D1):D608-17. PMID:29140435
Nucleic Acids Res. 2018 Jan 4;46(D1):D1074-D1082. PMID:29126136
Nucleic Acids Res., 45:D380-388 (2017).  PMID:27924025
Nucleic Acids Res. 2016 Jan 4;44(D1):D1202-13. PMID:26400175

>  <ROMol>  (384) 
<rdkit.Chem.rdchem.Mol object at 0x7c2905d330d0>

>  <Drug_like>  (384) 
True

$$$$
5-Octadecynoic acid
     RDKit          2D

 20 19  0  0  0  0  0  0  0  0999 V2000
   -0.6012    0.2400    0.0000 C   0  0  0  0  0  0  0  0  0  0  0  0
    0.6978   -0.5100    0.0000 C   0  0  0  0  0  0  0  0  0  0  0  0
    1.9968    0.2400    0.0000 C   0  0  0  0  0  0  0  0  0  0  0  0
    4.1272   -0.9900    0.0000 C   0  0  0  0  0  0  0  0  0  0  0  0
    5.8420    0.0000    0.0000 C   0  0  0  0  0  0  0  0  0  0  0  0
    7.1410   -0.7500    0.0000 C   0  0  0  0  0  0  0  0  0  0  0  0
    9.2714    0.4800    0.0000 C   0  0  0  0  0  0  0  0  0  0  0  0
   10.9862   -0.5100    0.0000 C   0  0  0  0  0  0  0  0  0  0  0  0
   12.7009    0.4800    0.0000 C   0  0  0  0  0  0  0  0  0  0  0  0
   14.4156   -0.5100    0.0000 C   0  0  0  0  0  0  0  0  0  0  0  0
   16.1304    0.4800    0.0000 C   0  0  0  0  0  0  0  0  0  0  0  0
   17.4294   -0.2700    0.0000 C   0  0  0  0  0  0  0  0  0  0  0  0
   18.7284    0.4800    0.0000 C   0  0  0  0  0  0  0  0  0  0  0  0
   20.0275    1.2300    0.0000 C   0  0  0  0  0  0  0  0  0  0  0  0
   21.3265    1.9800    0.0000 C   0  0  0  0  0  0  0  0  0  0  0  0
   22.6256    1.2300    0.0000 C   0  0  0  0  0  0  0  0  0  0  0  0
   24.3403    2.2200    0.0000 C   0  0  0  0  0  0  0  0  0  0  0  0
   25.6393    1.4700    0.0000 C   0  0  0  0  0  0  0  0  0  0  0  0
   25.6393   -0.0300    0.0000 O   0  0  0  0  0  0  0  0  0  0  0  0
   26.9384    2.2200    0.0000 O   0  0  0  0  0  0  0  0  0  0  0  0
  1  2  1  0
  2  3  1  0
  3  4  1  0
  4  5  1  0
  5  6  1  0
  6  7  1  0
  7  8  1  0
  8  9  1  0
  9 10  1  0
 10 11  1  0
 11 12  1  0
 12 13  1  0
 13 14  3  0
 14 15  1  0
 15 16  1  0
 16 17  1  0
 17 18  1  0
 18 19  2  0
 18 20  1  0
M  END
>  <cdk:Title>  (385) 
5-Octadecynoic acid

>  <1A2>  (385) 
N

>  <2A6>  (385) 
N

>  <2B6>  (385) 
N

>  <2C8>  (385) 
N

>  <2C9>  (385) 
N

>  <2C19>  (385) 
N

>  <2D6>  (385) 
N

>  <2E1>  (385) 
N

>  <3A4>  (385) 
N

>  <Citation>  (385) 
Nucleic Acids Res. 2018. Jan 4;46(D1):D608-17. PMID:29140435
Nucleic Acids Res. 2018 Jan 4;46(D1):D1074-D1082. PMID:29126136
Nucleic Acids Res., 45:D380-388 (2017).  PMID:27924025
Nucleic Acids Res. 2016 Jan 4;44(D1):D1202-13. PMID:26400175

>  <ROMol>  (385) 
<rdkit.Chem.rdchem.Mol object at 0x7c2905d33140>

>  <Drug_like>  (385) 
True

$$$$
4-Hydroxybenzeneacetonitrile
     RDKit          2D

 10 10  0  0  0  0  0  0  0  0999 V2000
    3.0274    1.2523    0.0000 C   0  0  0  0  0  0  0  0  0  0  0  0
    1.7429    1.9772    0.0000 C   0  0  0  0  0  0  0  0  0  0  0  0
    0.4439    1.2272    0.0000 C   0  0  0  0  0  0  0  0  0  0  0  0
   -0.8514    1.9836    0.0000 C   0  0  0  0  0  0  0  0  0  0  0  0
   -2.1542    1.2400    0.0000 C   0  0  0  0  0  0  0  0  0  0  0  0
   -3.4569    0.4964    0.0000 N   0  0  0  0  0  0  0  0  0  0  0  0
    0.4294   -0.2477    0.0000 C   0  0  0  0  0  0  0  0  0  0  0  0
    1.7539   -1.0418    0.0000 C   0  0  0  0  0  0  0  0  0  0  0  0
    3.0529   -0.2918    0.0000 C   0  0  0  0  0  0  0  0  0  0  0  0
    4.3581   -1.0310    0.0000 O   0  0  0  0  0  0  0  0  0  0  0  0
  1  2  2  0
  2  3  1  0
  3  4  1  0
  4  5  1  0
  5  6  3  0
  3  7  2  0
  7  8  1  0
  8  9  2  0
  1  9  1  0
  9 10  1  0
M  END
>  <cdk:Title>  (386) 
4-Hydroxybenzeneacetonitrile

>  <1A2>  (386) 
N

>  <2A6>  (386) 
N

>  <2B6>  (386) 
N

>  <2C8>  (386) 
N

>  <2C9>  (386) 
N

>  <2C19>  (386) 
N

>  <2D6>  (386) 
N

>  <2E1>  (386) 
N

>  <3A4>  (386) 
N

>  <Citation>  (386) 
Nucleic Acids Res. 2018. Jan 4;46(D1):D608-17. PMID:29140435
Nucleic Acids Res. 2018 Jan 4;46(D1):D1074-D1082. PMID:29126136
Nucleic Acids Res., 45:D380-388 (2017).  PMID:27924025
Nucleic Acids Res. 2016 Jan 4;44(D1):D1202-13. PMID:26400175

>  <ROMol>  (386) 
<rdkit.Chem.rdchem.Mol object at 0x7c2905d331b0>

>  <Drug_like>  (386) 
True

$$$$
L-Galactitol-1-phosphate
     RDKit          2D

 16 15  0  0  0  0  0  0  0  0999 V2000
   13.9362    0.3349    0.0000 P   0  0  0  0  0  0  0  0  0  0  0  0
   12.4362    0.3349    0.0000 O   0  0  0  0  0  0  0  0  0  0  0  0
   11.6862    1.6339    0.0000 C   0  0  0  0  0  0  0  0  0  0  0  0
    9.7062    1.6339    0.0000 C   0  0  0  0  0  0  0  0  0  0  0  0
    9.9667    0.1567    0.0000 O   0  0  0  0  0  0  0  0  0  0  0  0
    8.7162    3.3486    0.0000 C   0  0  0  0  0  0  0  0  0  0  0  0
    8.4557    4.8258    0.0000 O   0  0  0  0  0  0  0  0  0  0  0  0
    6.7362    3.3486    0.0000 C   0  0  0  0  0  0  0  0  0  0  0  0
    6.9967    1.8714    0.0000 O   0  0  0  0  0  0  0  0  0  0  0  0
    5.7462    5.0634    0.0000 C   0  0  0  0  0  0  0  0  0  0  0  0
    5.4857    6.5406    0.0000 O   0  0  0  0  0  0  0  0  0  0  0  0
    4.2462    5.0634    0.0000 C   0  0  0  0  0  0  0  0  0  0  0  0
    3.4962    6.3624    0.0000 O   0  0  0  0  0  0  0  0  0  0  0  0
   14.6862    1.6339    0.0000 O   0  0  0  0  0  0  0  0  0  0  0  0
   13.6757   -1.1423    0.0000 O   0  0  0  0  0  0  0  0  0  0  0  0
   15.3457   -0.1782    0.0000 O   0  0  0  0  0  0  0  0  0  0  0  0
  1  2  1  0
  2  3  1  0
  3  4  1  0
  4  5  1  0
  4  6  1  0
  6  7  1  0
  6  8  1  0
  8  9  1  0
  8 10  1  0
 10 11  1  0
 10 12  1  0
 12 13  1  0
  1 14  1  0
  1 15  1  0
  1 16  2  0
M  END
>  <cdk:Title>  (387) 
L-Galactitol-1-phosphate

>  <1A2>  (387) 
N

>  <2A6>  (387) 
N

>  <2B6>  (387) 
N

>  <2C8>  (387) 
N

>  <2C9>  (387) 
N

>  <2C19>  (387) 
N

>  <2D6>  (387) 
N

>  <2E1>  (387) 
N

>  <3A4>  (387) 
N

>  <Citation>  (387) 
Nucleic Acids Res. 2018. Jan 4;46(D1):D608-17. PMID:29140435
Nucleic Acids Res. 2018 Jan 4;46(D1):D1074-D1082. PMID:29126136
Nucleic Acids Res., 45:D380-388 (2017).  PMID:27924025
Nucleic Acids Res. 2016 Jan 4;44(D1):D1202-13. PMID:26400175

>  <ROMol>  (387) 
<rdkit.Chem.rdchem.Mol object at 0x7c2905d33220>

>  <Drug_like>  (387) 
True

$$$$
Hydroxycelecoxib
     RDKit          2D

 27 29  0  0  0  0  0  0  0  0999 V2000
   -0.8286   -1.8673    0.0000 S   0  0  0  0  0  0  0  0  0  0  0  0
    0.5785   -2.3869    0.0000 O   0  0  0  0  0  0  0  0  0  0  0  0
   -0.0725   -0.5718    0.0000 O   0  0  0  0  0  0  0  0  0  0  0  0
   -1.0960   -3.3432    0.0000 N   0  0  0  0  0  0  0  0  0  0  0  0
   -1.9731   -0.8977    0.0000 C   0  0  0  0  0  0  0  0  0  0  0  0
   -3.3851   -1.4039    0.0000 C   0  0  0  0  0  0  0  0  0  0  0  0
   -4.5298   -0.4332    0.0000 C   0  0  0  0  0  0  0  0  0  0  0  0
   -4.2625    1.0436    0.0000 C   0  0  0  0  0  0  0  0  0  0  0  0
   -6.1395    2.6337    0.0000 N   0  0  0  0  0  0  0  0  0  0  0  0
   -7.6007    2.2857    0.0000 N   0  0  0  0  0  0  0  0  0  0  0  0
   -8.3869    3.5546    0.0000 C   0  0  0  0  0  0  0  0  0  0  0  0
   -7.4173    4.6991    0.0000 C   0  0  0  0  0  0  0  0  0  0  0  0
   -6.0365    4.1322    0.0000 C   0  0  0  0  0  0  0  0  0  0  0  0
   -4.7627    4.9243    0.0000 C   0  0  0  0  0  0  0  0  0  0  0  0
   -3.4932    4.2254    0.0000 C   0  0  0  0  0  0  0  0  0  0  0  0
   -2.2064    4.9568    0.0000 C   0  0  0  0  0  0  0  0  0  0  0  0
   -2.2739    6.4536    0.0000 C   0  0  0  0  0  0  0  0  0  0  0  0
   -3.5434    7.1525    0.0000 C   0  0  0  0  0  0  0  0  0  0  0  0
   -4.8301    6.4211    0.0000 C   0  0  0  0  0  0  0  0  0  0  0  0
   -1.0001    7.2457    0.0000 C   0  0  0  0  0  0  0  0  0  0  0  0
   -1.0491    8.7449    0.0000 O   0  0  0  0  0  0  0  0  0  0  0  0
   -9.8828    3.6656    0.0000 C   0  0  0  0  0  0  0  0  0  0  0  0
  -10.5346    5.0166    0.0000 F   0  0  0  0  0  0  0  0  0  0  0  0
  -11.3264    3.2583    0.0000 F   0  0  0  0  0  0  0  0  0  0  0  0
   -9.7323    2.1732    0.0000 F   0  0  0  0  0  0  0  0  0  0  0  0
   -2.8505    1.5498    0.0000 C   0  0  0  0  0  0  0  0  0  0  0  0
   -1.7058    0.5791    0.0000 C   0  0  0  0  0  0  0  0  0  0  0  0
  1  2  2  0
  1  3  2  0
  1  4  1  0
  1  5  1  0
  5  6  2  0
  6  7  1  0
  7  8  2  0
  8  9  1  0
  9 10  1  0
 10 11  2  0
 11 12  1  0
 12 13  2  0
  9 13  1  0
 13 14  1  0
 14 15  2  0
 15 16  1  0
 16 17  2  0
 17 18  1  0
 18 19  2  0
 14 19  1  0
 17 20  1  0
 20 21  1  0
 11 22  1  0
 22 23  1  0
 22 24  1  0
 22 25  1  0
  8 26  1  0
 26 27  2  0
  5 27  1  0
M  END
>  <cdk:Title>  (388) 
Hydroxycelecoxib

>  <1A2>  (388) 
N

>  <2A6>  (388) 
N

>  <2B6>  (388) 
N

>  <2C8>  (388) 
N

>  <2C9>  (388) 
N

>  <2C19>  (388) 
N

>  <2D6>  (388) 
N

>  <2E1>  (388) 
N

>  <3A4>  (388) 
N

>  <Citation>  (388) 
Nucleic Acids Res. 2018. Jan 4;46(D1):D608-17. PMID:29140435
Nucleic Acids Res. 2018 Jan 4;46(D1):D1074-D1082. PMID:29126136
Nucleic Acids Res., 45:D380-388 (2017).  PMID:27924025
Nucleic Acids Res. 2016 Jan 4;44(D1):D1202-13. PMID:26400175

>  <ROMol>  (388) 
<rdkit.Chem.rdchem.Mol object at 0x7c2905d33290>

>  <Drug_like>  (388) 
True

$$$$
SCHEMBL8429139
     RDKit          2D

 17 16  0  0  0  0  0  0  0  0999 V2000
    4.1260   -2.7937    0.0000 N   0  0  0  0  0  0  0  0  0  0  0  0
    5.6033   -3.0542    0.0000 C   0  0  0  0  0  0  0  0  0  0  0  0
    6.5674   -1.9051    0.0000 O   0  0  0  0  0  0  0  0  0  0  0  0
    6.1163   -4.4637    0.0000 C   0  0  0  0  0  0  0  0  0  0  0  0
    5.7725   -6.4136    0.0000 N   0  0  0  0  0  0  0  0  0  0  0  0
    9.0116   -4.9742    0.0000 C   0  0  0  0  0  0  0  0  0  0  0  0
    9.7616   -3.6752    0.0000 C   0  0  0  0  0  0  0  0  0  0  0  0
    8.7511   -6.4515    0.0000 C   0  0  0  0  0  0  0  0  0  0  0  0
    3.6130   -1.3842    0.0000 C   0  0  0  0  0  0  0  0  0  0  0  0
    2.1358   -1.1237    0.0000 C   0  0  0  0  0  0  0  0  0  0  0  0
    1.1716   -2.2728    0.0000 C   0  0  0  0  0  0  0  0  0  0  0  0
   -0.3056   -2.0123    0.0000 C   0  0  0  0  0  0  0  0  0  0  0  0
   -1.2698   -3.1614    0.0000 N   0  0  0  0  0  0  0  0  0  0  0  0
   -0.8186   -0.6027    0.0000 O   0  0  0  0  0  0  0  0  0  0  0  0
    3.6130    0.5958    0.0000 C   0  0  0  0  0  0  0  0  0  0  0  0
    2.3140    1.3458    0.0000 O   0  0  0  0  0  0  0  0  0  0  0  0
    4.9120    1.3458    0.0000 O   0  0  0  0  0  0  0  0  0  0  0  0
  1  2  1  0
  2  3  2  0
  2  4  1  0
  4  5  1  0
  4  6  1  0
  6  7  1  0
  6  8  1  0
  1  9  1  0
  9 10  1  0
 10 11  1  0
 11 12  1  0
 12 13  1  0
 12 14  2  0
  9 15  1  0
 15 16  1  0
 15 17  2  0
M  END
>  <cdk:Title>  (389) 
SCHEMBL8429139

>  <1A2>  (389) 
N

>  <2A6>  (389) 
N

>  <2B6>  (389) 
N

>  <2C8>  (389) 
N

>  <2C9>  (389) 
N

>  <2C19>  (389) 
N

>  <2D6>  (389) 
N

>  <2E1>  (389) 
N

>  <3A4>  (389) 
N

>  <Citation>  (389) 
Nucleic Acids Res. 2018. Jan 4;46(D1):D608-17. PMID:29140435
Nucleic Acids Res. 2018 Jan 4;46(D1):D1074-D1082. PMID:29126136
Nucleic Acids Res., 45:D380-388 (2017).  PMID:27924025
Nucleic Acids Res. 2016 Jan 4;44(D1):D1202-13. PMID:26400175

>  <ROMol>  (389) 
<rdkit.Chem.rdchem.Mol object at 0x7c2905d33300>

>  <Drug_like>  (389) 
True

$$$$
2-Methylpropyl hexanoate
     RDKit          2D

 12 11  0  0  0  0  0  0  0  0999 V2000
   10.0806   -7.7276    0.0000 C   0  0  0  0  0  0  0  0  0  0  0  0
    9.3306   -6.4286    0.0000 C   0  0  0  0  0  0  0  0  0  0  0  0
    7.8306   -6.4286    0.0000 C   0  0  0  0  0  0  0  0  0  0  0  0
    6.6006   -4.2982    0.0000 C   0  0  0  0  0  0  0  0  0  0  0  0
    5.1006   -4.2982    0.0000 C   0  0  0  0  0  0  0  0  0  0  0  0
    4.3506   -2.9991    0.0000 C   0  0  0  0  0  0  0  0  0  0  0  0
    5.1006   -1.7001    0.0000 O   0  0  0  0  0  0  0  0  0  0  0  0
    2.8506   -2.9991    0.0000 O   0  0  0  0  0  0  0  0  0  0  0  0
    2.1006   -1.7001    0.0000 C   0  0  0  0  0  0  0  0  0  0  0  0
   -0.8394   -1.7001    0.0000 C   0  0  0  0  0  0  0  0  0  0  0  0
   -1.5894   -2.9991    0.0000 C   0  0  0  0  0  0  0  0  0  0  0  0
   -0.5789   -0.2229    0.0000 C   0  0  0  0  0  0  0  0  0  0  0  0
  1  2  1  0
  2  3  1  0
  3  4  1  0
  4  5  1  0
  5  6  1  0
  6  7  2  0
  6  8  1  0
  8  9  1  0
  9 10  1  0
 10 11  1  0
 10 12  1  0
M  END
>  <cdk:Title>  (390) 
2-Methylpropyl hexanoate

>  <1A2>  (390) 
N

>  <2A6>  (390) 
N

>  <2B6>  (390) 
N

>  <2C8>  (390) 
N

>  <2C9>  (390) 
N

>  <2C19>  (390) 
N

>  <2D6>  (390) 
N

>  <2E1>  (390) 
N

>  <3A4>  (390) 
N

>  <Citation>  (390) 
Nucleic Acids Res. 2018. Jan 4;46(D1):D608-17. PMID:29140435
Nucleic Acids Res. 2018 Jan 4;46(D1):D1074-D1082. PMID:29126136
Nucleic Acids Res., 45:D380-388 (2017).  PMID:27924025
Nucleic Acids Res. 2016 Jan 4;44(D1):D1202-13. PMID:26400175

>  <ROMol>  (390) 
<rdkit.Chem.rdchem.Mol object at 0x7c2905d33370>

>  <Drug_like>  (390) 
True

$$$$
1_1-Dimethoxyheptane
     RDKit          2D

 11 10  0  0  0  0  0  0  0  0999 V2000
    2.1307   -4.1555    0.0000 C   0  0  0  0  0  0  0  0  0  0  0  0
    3.6307   -4.1555    0.0000 C   0  0  0  0  0  0  0  0  0  0  0  0
    4.3807   -2.8564    0.0000 C   0  0  0  0  0  0  0  0  0  0  0  0
    6.3607   -2.8564    0.0000 C   0  0  0  0  0  0  0  0  0  0  0  0
    7.3507   -1.1417    0.0000 C   0  0  0  0  0  0  0  0  0  0  0  0
    9.3307   -1.1417    0.0000 C   0  0  0  0  0  0  0  0  0  0  0  0
   10.0807    0.1573    0.0000 C   0  0  0  0  0  0  0  0  0  0  0  0
    9.3307    1.4564    0.0000 O   0  0  0  0  0  0  0  0  0  0  0  0
   10.0807    2.7554    0.0000 C   0  0  0  0  0  0  0  0  0  0  0  0
   11.2298    1.1215    0.0000 O   0  0  0  0  0  0  0  0  0  0  0  0
   12.6393    0.6085    0.0000 C   0  0  0  0  0  0  0  0  0  0  0  0
  1  2  1  0
  2  3  1  0
  3  4  1  0
  4  5  1  0
  5  6  1  0
  6  7  1  0
  7  8  1  0
  8  9  1  0
  7 10  1  0
 10 11  1  0
M  END
>  <cdk:Title>  (391) 
1_1-Dimethoxyheptane

>  <1A2>  (391) 
N

>  <2A6>  (391) 
N

>  <2B6>  (391) 
N

>  <2C8>  (391) 
N

>  <2C9>  (391) 
N

>  <2C19>  (391) 
N

>  <2D6>  (391) 
N

>  <2E1>  (391) 
N

>  <3A4>  (391) 
N

>  <Citation>  (391) 
Nucleic Acids Res. 2018. Jan 4;46(D1):D608-17. PMID:29140435
Nucleic Acids Res. 2018 Jan 4;46(D1):D1074-D1082. PMID:29126136
Nucleic Acids Res., 45:D380-388 (2017).  PMID:27924025
Nucleic Acids Res. 2016 Jan 4;44(D1):D1202-13. PMID:26400175

>  <ROMol>  (391) 
<rdkit.Chem.rdchem.Mol object at 0x7c2905d333e0>

>  <Drug_like>  (391) 
True

$$$$
Isopyridoxal
     RDKit          2D

 12 12  0  0  0  0  0  0  0  0999 V2000
    1.3810   -1.9502    0.0000 O   0  0  0  0  0  0  0  0  0  0  0  0
    0.0820   -1.2002    0.0000 C   0  0  0  0  0  0  0  0  0  0  0  0
    0.0820    0.2998    0.0000 C   0  0  0  0  0  0  0  0  0  0  0  0
    1.3820    1.0498    0.0000 C   0  0  0  0  0  0  0  0  0  0  0  0
    2.6809    0.2996    0.0000 O   0  0  0  0  0  0  0  0  0  0  0  0
    1.3820    2.5498    0.0000 C   0  0  0  0  0  0  0  0  0  0  0  0
    0.0820    3.2998    0.0000 N   0  0  0  0  0  0  0  0  0  0  0  0
   -1.2180    2.5498    0.0000 C   0  0  0  0  0  0  0  0  0  0  0  0
   -1.2180    1.0498    0.0000 C   0  0  0  0  0  0  0  0  0  0  0  0
   -2.5169    0.2996    0.0000 C   0  0  0  0  0  0  0  0  0  0  0  0
   -3.8161    1.0494    0.0000 O   0  0  0  0  0  0  0  0  0  0  0  0
    2.6809    3.3000    0.0000 C   0  0  0  0  0  0  0  0  0  0  0  0
  1  2  1  0
  2  3  1  0
  3  4  2  0
  4  5  1  0
  4  6  1  0
  6  7  2  0
  7  8  1  0
  8  9  2  0
  3  9  1  0
  9 10  1  0
 10 11  2  0
  6 12  1  0
M  END
>  <cdk:Title>  (392) 
Isopyridoxal

>  <1A2>  (392) 
N

>  <2A6>  (392) 
N

>  <2B6>  (392) 
N

>  <2C8>  (392) 
N

>  <2C9>  (392) 
N

>  <2C19>  (392) 
N

>  <2D6>  (392) 
N

>  <2E1>  (392) 
N

>  <3A4>  (392) 
N

>  <Citation>  (392) 
Nucleic Acids Res. 2018. Jan 4;46(D1):D608-17. PMID:29140435
Nucleic Acids Res. 2018 Jan 4;46(D1):D1074-D1082. PMID:29126136
Nucleic Acids Res., 45:D380-388 (2017).  PMID:27924025
Nucleic Acids Res. 2016 Jan 4;44(D1):D1202-13. PMID:26400175

>  <ROMol>  (392) 
<rdkit.Chem.rdchem.Mol object at 0x7c2905d33450>

>  <Drug_like>  (392) 
True

$$$$
Sinalexin
     RDKit          2D

 14 16  0  0  0  0  0  0  0  0999 V2000
   -4.1299    3.6835    0.0000 C   0  0  0  0  0  0  0  0  0  0  0  0
   -3.6664    2.2569    0.0000 O   0  0  0  0  0  0  0  0  0  0  0  0
   -2.1991    1.9450    0.0000 N   0  0  0  0  0  0  0  0  0  0  0  0
   -1.5890    0.5747    0.0000 C   0  0  0  0  0  0  0  0  0  0  0  0
   -2.1991   -0.7956    0.0000 C   0  0  0  0  0  0  0  0  0  0  0  0
   -1.3175   -2.0091    0.0000 C   0  0  0  0  0  0  0  0  0  0  0  0
    0.1743   -1.8523    0.0000 C   0  0  0  0  0  0  0  0  0  0  0  0
    0.7844   -0.4820    0.0000 C   0  0  0  0  0  0  0  0  0  0  0  0
   -0.0972    0.7315    0.0000 C   0  0  0  0  0  0  0  0  0  0  0  0
    0.2146    2.1987    0.0000 C   0  0  0  0  0  0  0  0  0  0  0  0
    1.3293    3.2024    0.0000 C   0  0  0  0  0  0  0  0  0  0  0  0
    0.7192    4.5727    0.0000 N   0  0  0  0  0  0  0  0  0  0  0  0
   -0.7725    4.4159    0.0000 S   0  0  0  0  0  0  0  0  0  0  0  0
   -1.0844    2.9487    0.0000 C   0  0  0  0  0  0  0  0  0  0  0  0
  1  2  1  0
  2  3  1  0
  3  4  1  0
  4  5  2  0
  5  6  1  0
  6  7  2  0
  7  8  1  0
  8  9  2  0
  4  9  1  0
  9 10  1  0
 10 11  1  0
 11 12  2  0
 12 13  1  0
 13 14  1  0
 10 14  2  0
  3 14  1  0
M  END
>  <cdk:Title>  (393) 
Sinalexin

>  <1A2>  (393) 
N

>  <2A6>  (393) 
N

>  <2B6>  (393) 
N

>  <2C8>  (393) 
N

>  <2C9>  (393) 
N

>  <2C19>  (393) 
N

>  <2D6>  (393) 
N

>  <2E1>  (393) 
N

>  <3A4>  (393) 
N

>  <Citation>  (393) 
Nucleic Acids Res. 2018. Jan 4;46(D1):D608-17. PMID:29140435
Nucleic Acids Res. 2018 Jan 4;46(D1):D1074-D1082. PMID:29126136
Nucleic Acids Res., 45:D380-388 (2017).  PMID:27924025
Nucleic Acids Res. 2016 Jan 4;44(D1):D1202-13. PMID:26400175

>  <ROMol>  (393) 
<rdkit.Chem.rdchem.Mol object at 0x7c2905d334c0>

>  <Drug_like>  (393) 
True

$$$$
Ubiquinol-2
     RDKit          2D

 23 23  0  0  0  0  0  0  0  0999 V2000
    1.3000    0.7500    0.0000 C   0  0  0  0  0  0  0  0  0  0  0  0
   -0.0000    1.5000    0.0000 C   0  0  0  0  0  0  0  0  0  0  0  0
   -1.3000    0.7500    0.0000 C   0  0  0  0  0  0  0  0  0  0  0  0
   -1.3000   -0.7500    0.0000 C   0  0  0  0  0  0  0  0  0  0  0  0
   -0.0000   -1.5000    0.0000 C   0  0  0  0  0  0  0  0  0  0  0  0
    1.3000   -0.7500    0.0000 C   0  0  0  0  0  0  0  0  0  0  0  0
    2.5989   -1.5002    0.0000 C   0  0  0  0  0  0  0  0  0  0  0  0
   -0.0000   -3.0000    0.0000 O   0  0  0  0  0  0  0  0  0  0  0  0
   -2.5989   -1.5002    0.0000 O   0  0  0  0  0  0  0  0  0  0  0  0
   -3.8981   -0.7504    0.0000 C   0  0  0  0  0  0  0  0  0  0  0  0
   -2.5989    1.5002    0.0000 O   0  0  0  0  0  0  0  0  0  0  0  0
   -2.5987    3.0002    0.0000 C   0  0  0  0  0  0  0  0  0  0  0  0
    0.0000    3.0000    0.0000 O   0  0  0  0  0  0  0  0  0  0  0  0
    2.5989    1.5002    0.0000 C   0  0  0  0  0  0  0  0  0  0  0  0
    3.8981    0.7504    0.0000 C   0  0  0  0  0  0  0  0  0  0  0  0
    6.0283    1.9808    0.0000 C   0  0  0  0  0  0  0  0  0  0  0  0
    7.3275    1.2310    0.0000 C   0  0  0  0  0  0  0  0  0  0  0  0
    8.6264    1.9812    0.0000 C   0  0  0  0  0  0  0  0  0  0  0  0
    9.9255    1.2314    0.0000 C   0  0  0  0  0  0  0  0  0  0  0  0
   11.2245    1.9816    0.0000 C   0  0  0  0  0  0  0  0  0  0  0  0
   12.5236    1.2318    0.0000 C   0  0  0  0  0  0  0  0  0  0  0  0
   11.2242    3.4816    0.0000 C   0  0  0  0  0  0  0  0  0  0  0  0
    6.0281    3.4808    0.0000 C   0  0  0  0  0  0  0  0  0  0  0  0
  1  2  2  0
  2  3  1  0
  3  4  2  0
  4  5  1  0
  5  6  2  0
  1  6  1  0
  6  7  1  0
  5  8  1  0
  4  9  1  0
  9 10  1  0
  3 11  1  0
 11 12  1  0
  2 13  1  0
  1 14  1  0
 14 15  1  0
 15 16  2  0
 16 17  1  0
 17 18  1  0
 18 19  1  0
 19 20  2  0
 20 21  1  0
 20 22  1  0
 16 23  1  0
M  END
>  <cdk:Title>  (394) 
Ubiquinol-2

>  <1A2>  (394) 
N

>  <2A6>  (394) 
N

>  <2B6>  (394) 
N

>  <2C8>  (394) 
N

>  <2C9>  (394) 
N

>  <2C19>  (394) 
N

>  <2D6>  (394) 
N

>  <2E1>  (394) 
N

>  <3A4>  (394) 
N

>  <Citation>  (394) 
Nucleic Acids Res. 2018. Jan 4;46(D1):D608-17. PMID:29140435
Nucleic Acids Res. 2018 Jan 4;46(D1):D1074-D1082. PMID:29126136
Nucleic Acids Res., 45:D380-388 (2017).  PMID:27924025
Nucleic Acids Res. 2016 Jan 4;44(D1):D1202-13. PMID:26400175

>  <ROMol>  (394) 
<rdkit.Chem.rdchem.Mol object at 0x7c2905d335a0>

>  <Drug_like>  (394) 
True

$$$$
Deoxycytidine
     RDKit          2D

 16 17  0  0  0  0  0  0  0  0999 V2000
   -0.0695   -2.8245    0.0000 C   0  0  0  0  0  0  0  0  0  0  0  0
   -0.8371   -1.5358    0.0000 N   0  0  0  0  0  0  0  0  0  0  0  0
   -0.0950   -0.2413    0.0000 C   0  0  0  0  0  0  0  0  0  0  0  0
   -0.8450    1.0578    0.0000 N   0  0  0  0  0  0  0  0  0  0  0  0
   -2.3631    1.0473    0.0000 C   0  0  0  0  0  0  0  0  0  0  0  0
   -3.1053   -0.2472    0.0000 C   0  0  0  0  0  0  0  0  0  0  0  0
   -2.3403   -1.5723    0.0000 C   0  0  0  0  0  0  0  0  0  0  0  0
   -3.1196    2.3426    0.0000 N   0  0  0  0  0  0  0  0  0  0  0  0
    1.4050   -0.2390    0.0000 O   0  0  0  0  0  0  0  0  0  0  0  0
    1.1315   -1.9224    0.0000 O   0  0  0  0  0  0  0  0  0  0  0  0
    2.3504   -2.8002    0.0000 C   0  0  0  0  0  0  0  0  0  0  0  0
    4.1661   -3.5899    0.0000 C   0  0  0  0  0  0  0  0  0  0  0  0
    4.3358   -5.0802    0.0000 O   0  0  0  0  0  0  0  0  0  0  0  0
    1.9047   -4.2248    0.0000 C   0  0  0  0  0  0  0  0  0  0  0  0
    0.4047   -4.2398    0.0000 C   0  0  0  0  0  0  0  0  0  0  0  0
    1.7633   -5.7181    0.0000 O   0  0  0  0  0  0  0  0  0  0  0  0
  1  2  1  0
  2  3  1  0
  3  4  1  0
  4  5  2  0
  5  6  1  0
  6  7  2  0
  2  7  1  0
  5  8  1  0
  3  9  2  0
  1 10  1  0
 10 11  1  0
 11 12  1  0
 12 13  1  0
 11 14  1  0
 14 15  1  0
  1 15  1  0
 14 16  1  0
M  END
>  <cdk:Title>  (395) 
Deoxycytidine

>  <1A2>  (395) 
N

>  <2A6>  (395) 
N

>  <2B6>  (395) 
N

>  <2C8>  (395) 
N

>  <2C9>  (395) 
N

>  <2C19>  (395) 
N

>  <2D6>  (395) 
N

>  <2E1>  (395) 
N

>  <3A4>  (395) 
N

>  <Citation>  (395) 
Nucleic Acids Res. 2018. Jan 4;46(D1):D608-17. PMID:29140435
Nucleic Acids Res. 2018 Jan 4;46(D1):D1074-D1082. PMID:29126136
Nucleic Acids Res., 45:D380-388 (2017).  PMID:27924025
Nucleic Acids Res. 2016 Jan 4;44(D1):D1202-13. PMID:26400175

>  <ROMol>  (395) 
<rdkit.Chem.rdchem.Mol object at 0x7c2905d33610>

>  <Drug_like>  (395) 
True

$$$$
1_2-Dehydrosalsolinol
     RDKit          2D

 13 14  0  0  0  0  0  0  0  0999 V2000
    1.3000   -3.0000    0.0000 C   0  0  0  0  0  0  0  0  0  0  0  0
    1.3000   -1.5000    0.0000 C   0  0  0  0  0  0  0  0  0  0  0  0
    2.6000   -0.7500    0.0000 N   0  0  0  0  0  0  0  0  0  0  0  0
    2.6000    0.7500    0.0000 C   0  0  0  0  0  0  0  0  0  0  0  0
    1.3000    1.5000    0.0000 C   0  0  0  0  0  0  0  0  0  0  0  0
    0.0000    0.7500    0.0000 C   0  0  0  0  0  0  0  0  0  0  0  0
   -1.3000    1.5000    0.0000 C   0  0  0  0  0  0  0  0  0  0  0  0
   -2.6000    0.7500    0.0000 C   0  0  0  0  0  0  0  0  0  0  0  0
   -3.8989    1.5002    0.0000 O   0  0  0  0  0  0  0  0  0  0  0  0
   -2.6000   -0.7500    0.0000 C   0  0  0  0  0  0  0  0  0  0  0  0
   -3.8989   -1.5002    0.0000 O   0  0  0  0  0  0  0  0  0  0  0  0
   -1.3000   -1.5000    0.0000 C   0  0  0  0  0  0  0  0  0  0  0  0
    0.0000   -0.7500    0.0000 C   0  0  0  0  0  0  0  0  0  0  0  0
  1  2  1  0
  2  3  2  0
  3  4  1  0
  4  5  1  0
  5  6  1  0
  6  7  2  0
  7  8  1  0
  8  9  1  0
  8 10  2  0
 10 11  1  0
 10 12  1  0
 12 13  2  0
  2 13  1  0
  6 13  1  0
M  END
>  <cdk:Title>  (396) 
1_2-Dehydrosalsolinol

>  <1A2>  (396) 
N

>  <2A6>  (396) 
N

>  <2B6>  (396) 
N

>  <2C8>  (396) 
N

>  <2C9>  (396) 
N

>  <2C19>  (396) 
N

>  <2D6>  (396) 
N

>  <2E1>  (396) 
N

>  <3A4>  (396) 
N

>  <Citation>  (396) 
Nucleic Acids Res. 2018. Jan 4;46(D1):D608-17. PMID:29140435
Nucleic Acids Res. 2018 Jan 4;46(D1):D1074-D1082. PMID:29126136
Nucleic Acids Res., 45:D380-388 (2017).  PMID:27924025
Nucleic Acids Res. 2016 Jan 4;44(D1):D1202-13. PMID:26400175

>  <ROMol>  (396) 
<rdkit.Chem.rdchem.Mol object at 0x7c2905d33680>

>  <Drug_like>  (396) 
True

$$$$
Methyl (2S)-2-methylpentanoate
     RDKit          2D

  9  8  0  0  0  0  0  0  0  0999 V2000
    8.3414   -1.0639    0.0000 C   0  0  0  0  0  0  0  0  0  0  0  0
    6.8414   -1.0639    0.0000 C   0  0  0  0  0  0  0  0  0  0  0  0
    6.0914    0.2351    0.0000 C   0  0  0  0  0  0  0  0  0  0  0  0
    3.1514    0.2351    0.0000 C   0  0  0  0  0  0  0  0  0  0  0  0
    3.4952    2.1851    0.0000 C   0  0  0  0  0  0  0  0  0  0  0  0
    2.4014   -1.0639    0.0000 C   0  0  0  0  0  0  0  0  0  0  0  0
    3.1514   -2.3629    0.0000 O   0  0  0  0  0  0  0  0  0  0  0  0
    0.9014   -1.0639    0.0000 O   0  0  0  0  0  0  0  0  0  0  0  0
    0.1514   -2.3629    0.0000 C   0  0  0  0  0  0  0  0  0  0  0  0
  1  2  1  0
  2  3  1  0
  3  4  1  0
  4  5  1  0
  4  6  1  0
  6  7  2  0
  6  8  1  0
  8  9  1  0
M  END
>  <cdk:Title>  (397) 
Methyl (2S)-2-methylpentanoate

>  <1A2>  (397) 
N

>  <2A6>  (397) 
N

>  <2B6>  (397) 
N

>  <2C8>  (397) 
N

>  <2C9>  (397) 
N

>  <2C19>  (397) 
N

>  <2D6>  (397) 
N

>  <2E1>  (397) 
N

>  <3A4>  (397) 
N

>  <Citation>  (397) 
Nucleic Acids Res. 2018. Jan 4;46(D1):D608-17. PMID:29140435
Nucleic Acids Res. 2018 Jan 4;46(D1):D1074-D1082. PMID:29126136
Nucleic Acids Res., 45:D380-388 (2017).  PMID:27924025
Nucleic Acids Res. 2016 Jan 4;44(D1):D1202-13. PMID:26400175

>  <ROMol>  (397) 
<rdkit.Chem.rdchem.Mol object at 0x7c2905d336f0>

>  <Drug_like>  (397) 
True

$$$$
Ethyl acetoacetate
     RDKit          2D

  9  8  0  0  0  0  0  0  0  0999 V2000
    9.0933   -0.7500    0.0000 C   0  0  0  0  0  0  0  0  0  0  0  0
    7.7942   -0.0000    0.0000 C   0  0  0  0  0  0  0  0  0  0  0  0
    6.4952   -0.7500    0.0000 O   0  0  0  0  0  0  0  0  0  0  0  0
    5.1962   -0.0000    0.0000 C   0  0  0  0  0  0  0  0  0  0  0  0
    3.8971   -0.7500    0.0000 C   0  0  0  0  0  0  0  0  0  0  0  0
    2.5981   -0.0000    0.0000 C   0  0  0  0  0  0  0  0  0  0  0  0
    1.2990   -0.7500    0.0000 C   0  0  0  0  0  0  0  0  0  0  0  0
    2.5981    1.5000    0.0000 O   0  0  0  0  0  0  0  0  0  0  0  0
    5.1962    1.5000    0.0000 O   0  0  0  0  0  0  0  0  0  0  0  0
  1  2  1  0
  2  3  1  0
  3  4  1  0
  4  5  1  0
  5  6  1  0
  6  7  1  0
  6  8  2  0
  4  9  2  0
M  END
>  <cdk:Title>  (398) 
Ethyl acetoacetate

>  <1A2>  (398) 
N

>  <2A6>  (398) 
N

>  <2B6>  (398) 
N

>  <2C8>  (398) 
N

>  <2C9>  (398) 
N

>  <2C19>  (398) 
N

>  <2D6>  (398) 
N

>  <2E1>  (398) 
N

>  <3A4>  (398) 
N

>  <Citation>  (398) 
Nucleic Acids Res. 2018. Jan 4;46(D1):D608-17. PMID:29140435
Nucleic Acids Res. 2018 Jan 4;46(D1):D1074-D1082. PMID:29126136
Nucleic Acids Res., 45:D380-388 (2017).  PMID:27924025
Nucleic Acids Res. 2016 Jan 4;44(D1):D1202-13. PMID:26400175

>  <ROMol>  (398) 
<rdkit.Chem.rdchem.Mol object at 0x7c2905d33760>

>  <Drug_like>  (398) 
True

$$$$
L-Threo-ritalinic Acid
     RDKit          2D

 16 17  0  0  0  0  0  0  0  0999 V2000
   -3.2784    2.1209    0.0000 C   0  0  0  0  0  0  0  0  0  0  0  0
   -2.1290    1.1559    0.0000 C   0  0  0  0  0  0  0  0  0  0  0  0
   -0.7194    1.6689    0.0000 C   0  0  0  0  0  0  0  0  0  0  0  0
   -0.4593    3.1470    0.0000 C   0  0  0  0  0  0  0  0  0  0  0  0
   -1.6087    4.1121    0.0000 C   0  0  0  0  0  0  0  0  0  0  0  0
   -3.0182    3.5991    0.0000 C   0  0  0  0  0  0  0  0  0  0  0  0
    2.3034    4.1525    0.0000 C   0  0  0  0  0  0  0  0  0  0  0  0
    3.3090    1.3898    0.0000 C   0  0  0  0  0  0  0  0  0  0  0  0
    4.6081    2.1397    0.0000 C   0  0  0  0  0  0  0  0  0  0  0  0
    5.9075    1.3887    0.0000 C   0  0  0  0  0  0  0  0  0  0  0  0
    5.9078   -0.1121    0.0000 C   0  0  0  0  0  0  0  0  0  0  0  0
    4.6087   -0.8620    0.0000 C   0  0  0  0  0  0  0  0  0  0  0  0
    3.3093   -0.1110    0.0000 N   0  0  0  0  0  0  0  0  0  0  0  0
    2.3034    5.6525    0.0000 C   0  0  0  0  0  0  0  0  0  0  0  0
    1.0044    6.4025    0.0000 O   0  0  0  0  0  0  0  0  0  0  0  0
    3.6025    6.4025    0.0000 O   0  0  0  0  0  0  0  0  0  0  0  0
  1  2  2  0
  2  3  1  0
  3  4  2  0
  4  5  1  0
  5  6  2  0
  1  6  1  0
  4  7  1  0
  7  8  1  0
  8  9  1  0
  9 10  1  0
 10 11  1  0
 11 12  1  0
 12 13  1  0
  8 13  1  0
  7 14  1  0
 14 15  2  0
 14 16  1  0
M  END
>  <cdk:Title>  (399) 
L-Threo-ritalinic Acid

>  <1A2>  (399) 
N

>  <2A6>  (399) 
N

>  <2B6>  (399) 
N

>  <2C8>  (399) 
N

>  <2C9>  (399) 
N

>  <2C19>  (399) 
N

>  <2D6>  (399) 
N

>  <2E1>  (399) 
N

>  <3A4>  (399) 
N

>  <Citation>  (399) 
Nucleic Acids Res. 2018. Jan 4;46(D1):D608-17. PMID:29140435
Nucleic Acids Res. 2018 Jan 4;46(D1):D1074-D1082. PMID:29126136
Nucleic Acids Res., 45:D380-388 (2017).  PMID:27924025
Nucleic Acids Res. 2016 Jan 4;44(D1):D1202-13. PMID:26400175

>  <ROMol>  (399) 
<rdkit.Chem.rdchem.Mol object at 0x7c2905d338b0>

>  <Drug_like>  (399) 
True

$$$$
Sylveterpinolene
     RDKit          2D

 10 10  0  0  0  0  0  0  0  0999 V2000
    3.5738    1.3202    0.0000 C   0  0  0  0  0  0  0  0  0  0  0  0
    2.2761    0.5680    0.0000 C   0  0  0  0  0  0  0  0  0  0  0  0
    2.2786   -0.9320    0.0000 C   0  0  0  0  0  0  0  0  0  0  0  0
    0.9758    1.3158    0.0000 C   0  0  0  0  0  0  0  0  0  0  0  0
    0.9712    2.8080    0.0000 C   0  0  0  0  0  0  0  0  0  0  0  0
   -0.3278    3.5580    0.0000 C   0  0  0  0  0  0  0  0  0  0  0  0
   -1.6223    2.8158    0.0000 C   0  0  0  0  0  0  0  0  0  0  0  0
   -1.6228    1.3150    0.0000 C   0  0  0  0  0  0  0  0  0  0  0  0
   -2.9220    0.5652    0.0000 C   0  0  0  0  0  0  0  0  0  0  0  0
   -0.3238    0.5650    0.0000 C   0  0  0  0  0  0  0  0  0  0  0  0
  1  2  1  0
  2  3  1  0
  2  4  2  3
  4  5  1  0
  5  6  1  0
  6  7  1  0
  7  8  1  0
  8  9  1  0
  8 10  2  0
  4 10  1  0
M  END
>  <cdk:Title>  (400) 
Sylveterpinolene

>  <1A2>  (400) 
N

>  <2A6>  (400) 
N

>  <2B6>  (400) 
N

>  <2C8>  (400) 
N

>  <2C9>  (400) 
N

>  <2C19>  (400) 
N

>  <2D6>  (400) 
N

>  <2E1>  (400) 
N

>  <3A4>  (400) 
N

>  <Citation>  (400) 
Nucleic Acids Res. 2018. Jan 4;46(D1):D608-17. PMID:29140435
Nucleic Acids Res. 2018 Jan 4;46(D1):D1074-D1082. PMID:29126136
Nucleic Acids Res., 45:D380-388 (2017).  PMID:27924025
Nucleic Acids Res. 2016 Jan 4;44(D1):D1202-13. PMID:26400175

>  <ROMol>  (400) 
<rdkit.Chem.rdchem.Mol object at 0x7c2905d33920>

>  <Drug_like>  (400) 
True

$$$$
OCHRATOXIN b
     RDKit          2D

 27 29  0  0  0  0  0  0  0  0999 V2000
    1.4756   -6.0151    0.0000 C   0  0  0  0  0  0  0  0  0  0  0  0
   -1.4197   -5.5043    0.0000 C   0  0  0  0  0  0  0  0  0  0  0  0
   -1.4197   -4.0034    0.0000 C   0  0  0  0  0  0  0  0  0  0  0  0
   -2.7190   -3.2522    0.0000 C   0  0  0  0  0  0  0  0  0  0  0  0
   -2.7190   -1.7514    0.0000 C   0  0  0  0  0  0  0  0  0  0  0  0
   -4.0183   -1.0001    0.0000 C   0  0  0  0  0  0  0  0  0  0  0  0
   -5.3175   -1.7497    0.0000 C   0  0  0  0  0  0  0  0  0  0  0  0
   -5.3175   -3.2505    0.0000 C   0  0  0  0  0  0  0  0  0  0  0  0
   -4.0183   -4.0018    0.0000 C   0  0  0  0  0  0  0  0  0  0  0  0
   -4.0183   -5.5026    0.0000 C   0  0  0  0  0  0  0  0  0  0  0  0
   -5.3175   -6.2522    0.0000 O   0  0  0  0  0  0  0  0  0  0  0  0
   -2.7190   -6.2539    0.0000 O   0  0  0  0  0  0  0  0  0  0  0  0
   -6.6168   -4.0001    0.0000 O   0  0  0  0  0  0  0  0  0  0  0  0
   -6.6165   -0.9995    0.0000 C   0  0  0  0  0  0  0  0  0  0  0  0
   -7.9156   -1.7493    0.0000 N   0  0  0  0  0  0  0  0  0  0  0  0
   -9.2145   -0.9991    0.0000 C   0  0  0  0  0  0  0  0  0  0  0  0
   -9.2143    0.5009    0.0000 C   0  0  0  0  0  0  0  0  0  0  0  0
  -10.5132    1.2511    0.0000 C   0  0  0  0  0  0  0  0  0  0  0  0
  -10.5125    2.7520    0.0000 C   0  0  0  0  0  0  0  0  0  0  0  0
  -11.8114    3.5022    0.0000 C   0  0  0  0  0  0  0  0  0  0  0  0
  -13.1111    2.7516    0.0000 C   0  0  0  0  0  0  0  0  0  0  0  0
  -13.1118    1.2507    0.0000 C   0  0  0  0  0  0  0  0  0  0  0  0
  -11.8129    0.5005    0.0000 C   0  0  0  0  0  0  0  0  0  0  0  0
   -9.7278   -2.4085    0.0000 C   0  0  0  0  0  0  0  0  0  0  0  0
   -8.7638   -3.5577    0.0000 O   0  0  0  0  0  0  0  0  0  0  0  0
  -11.2051   -2.6688    0.0000 O   0  0  0  0  0  0  0  0  0  0  0  0
   -6.6162    0.5005    0.0000 O   0  0  0  0  0  0  0  0  0  0  0  0
  1  2  1  0
  2  3  1  0
  3  4  1  0
  4  5  2  0
  5  6  1  0
  6  7  2  0
  7  8  1  0
  8  9  2  0
  4  9  1  0
  9 10  1  0
 10 11  2  0
 10 12  1  0
  2 12  1  0
  8 13  1  0
  7 14  1  0
 14 15  2  0
 15 16  1  0
 16 17  1  0
 17 18  1  0
 18 19  2  0
 19 20  1  0
 20 21  2  0
 21 22  1  0
 22 23  2  0
 18 23  1  0
 16 24  1  0
 24 25  2  0
 24 26  1  0
 14 27  1  0
M  END
>  <cdk:Title>  (401) 
OCHRATOXIN b

>  <1A2>  (401) 
N

>  <2A6>  (401) 
N

>  <2B6>  (401) 
N

>  <2C8>  (401) 
N

>  <2C9>  (401) 
N

>  <2C19>  (401) 
N

>  <2D6>  (401) 
N

>  <2E1>  (401) 
N

>  <3A4>  (401) 
N

>  <Citation>  (401) 
Nucleic Acids Res. 2018. Jan 4;46(D1):D608-17. PMID:29140435
Nucleic Acids Res. 2018 Jan 4;46(D1):D1074-D1082. PMID:29126136
Nucleic Acids Res., 45:D380-388 (2017).  PMID:27924025
Nucleic Acids Res. 2016 Jan 4;44(D1):D1202-13. PMID:26400175

>  <ROMol>  (401) 
<rdkit.Chem.rdchem.Mol object at 0x7c2905d33990>

>  <Drug_like>  (401) 
True

$$$$
D-Citronellol
     RDKit          2D

 11 10  0  0  0  0  0  0  0  0999 V2000
    5.1962    0.1795    0.0000 C   0  0  0  0  0  0  0  0  0  0  0  0
    6.9109    1.1695    0.0000 C   0  0  0  0  0  0  0  0  0  0  0  0
    8.6256    0.1795    0.0000 C   0  0  0  0  0  0  0  0  0  0  0  0
    9.9247    0.9295    0.0000 C   0  0  0  0  0  0  0  0  0  0  0  0
   11.2237    0.1795    0.0000 C   0  0  0  0  0  0  0  0  0  0  0  0
   12.5227    0.9295    0.0000 C   0  0  0  0  0  0  0  0  0  0  0  0
   11.2237   -1.3205    0.0000 C   0  0  0  0  0  0  0  0  0  0  0  0
    3.4814    1.1695    0.0000 C   0  0  0  0  0  0  0  0  0  0  0  0
    0.9353   -0.3005    0.0000 C   0  0  0  0  0  0  0  0  0  0  0  0
   -0.3637    0.4495    0.0000 O   0  0  0  0  0  0  0  0  0  0  0  0
    4.2320   -0.9695    0.0000 C   0  0  0  0  0  0  0  0  0  0  0  0
  1  2  1  0
  2  3  1  0
  3  4  1  0
  4  5  2  0
  5  6  1  0
  5  7  1  0
  1  8  1  0
  8  9  1  0
  9 10  1  0
  1 11  1  0
M  END
>  <cdk:Title>  (402) 
D-Citronellol

>  <1A2>  (402) 
N

>  <2A6>  (402) 
N

>  <2B6>  (402) 
N

>  <2C8>  (402) 
N

>  <2C9>  (402) 
N

>  <2C19>  (402) 
N

>  <2D6>  (402) 
N

>  <2E1>  (402) 
N

>  <3A4>  (402) 
N

>  <Citation>  (402) 
Nucleic Acids Res. 2018. Jan 4;46(D1):D608-17. PMID:29140435
Nucleic Acids Res. 2018 Jan 4;46(D1):D1074-D1082. PMID:29126136
Nucleic Acids Res., 45:D380-388 (2017).  PMID:27924025
Nucleic Acids Res. 2016 Jan 4;44(D1):D1202-13. PMID:26400175

>  <ROMol>  (402) 
<rdkit.Chem.rdchem.Mol object at 0x7c2905d33a00>

>  <Drug_like>  (402) 
True

$$$$
N-Methylnicotinamide
     RDKit          2D

 10 10  0  0  0  0  0  0  0  0999 V2000
    0.9286   -1.7102    0.0000 O   0  0  0  0  0  0  0  0  0  0  0  0
    0.9283   -0.2102    0.0000 C   0  0  0  0  0  0  0  0  0  0  0  0
   -0.3708    0.5396    0.0000 N   0  0  0  0  0  0  0  0  0  0  0  0
   -1.6698   -0.2106    0.0000 C   0  0  0  0  0  0  0  0  0  0  0  0
    2.2272    0.5400    0.0000 C   0  0  0  0  0  0  0  0  0  0  0  0
    2.2272    2.0400    0.0000 C   0  0  0  0  0  0  0  0  0  0  0  0
    3.5272    2.7900    0.0000 N   0  0  0  0  0  0  0  0  0  0  0  0
    4.8272    2.0400    0.0000 C   0  0  0  0  0  0  0  0  0  0  0  0
    4.8272    0.5400    0.0000 C   0  0  0  0  0  0  0  0  0  0  0  0
    3.5272   -0.2100    0.0000 C   0  0  0  0  0  0  0  0  0  0  0  0
  1  2  2  0
  2  3  1  0
  3  4  1  0
  2  5  1  0
  5  6  2  0
  6  7  1  0
  7  8  2  0
  8  9  1  0
  9 10  2  0
  5 10  1  0
M  END
>  <cdk:Title>  (403) 
N-Methylnicotinamide

>  <1A2>  (403) 
N

>  <2A6>  (403) 
N

>  <2B6>  (403) 
N

>  <2C8>  (403) 
N

>  <2C9>  (403) 
N

>  <2C19>  (403) 
N

>  <2D6>  (403) 
N

>  <2E1>  (403) 
N

>  <3A4>  (403) 
N

>  <Citation>  (403) 
Nucleic Acids Res. 2018. Jan 4;46(D1):D608-17. PMID:29140435
Nucleic Acids Res. 2018 Jan 4;46(D1):D1074-D1082. PMID:29126136
Nucleic Acids Res., 45:D380-388 (2017).  PMID:27924025
Nucleic Acids Res. 2016 Jan 4;44(D1):D1202-13. PMID:26400175

>  <ROMol>  (403) 
<rdkit.Chem.rdchem.Mol object at 0x7c2905d33a70>

>  <Drug_like>  (403) 
True

$$$$
L-Canaline
     RDKit          2D

  9  8  0  0  0  0  0  0  0  0999 V2000
    5.5047    0.3677    0.0000 C   0  0  0  0  0  0  0  0  0  0  0  0
    5.5047    1.8677    0.0000 C   0  0  0  0  0  0  0  0  0  0  0  0
    4.2057    2.6177    0.0000 O   0  0  0  0  0  0  0  0  0  0  0  0
    4.2057    4.1177    0.0000 N   0  0  0  0  0  0  0  0  0  0  0  0
    6.8037   -0.3823    0.0000 C   0  0  0  0  0  0  0  0  0  0  0  0
    5.5310   -1.8991    0.0000 N   0  0  0  0  0  0  0  0  0  0  0  0
    8.1028    0.3677    0.0000 C   0  0  0  0  0  0  0  0  0  0  0  0
    9.4018   -0.3823    0.0000 O   0  0  0  0  0  0  0  0  0  0  0  0
    8.1028    1.8677    0.0000 O   0  0  0  0  0  0  0  0  0  0  0  0
  1  2  1  0
  2  3  1  0
  3  4  1  0
  1  5  1  0
  5  6  1  0
  5  7  1  0
  7  8  1  0
  7  9  2  0
M  END
>  <cdk:Title>  (404) 
L-Canaline

>  <1A2>  (404) 
N

>  <2A6>  (404) 
N

>  <2B6>  (404) 
N

>  <2C8>  (404) 
N

>  <2C9>  (404) 
N

>  <2C19>  (404) 
N

>  <2D6>  (404) 
N

>  <2E1>  (404) 
N

>  <3A4>  (404) 
N

>  <Citation>  (404) 
Nucleic Acids Res. 2018. Jan 4;46(D1):D608-17. PMID:29140435
Nucleic Acids Res. 2018 Jan 4;46(D1):D1074-D1082. PMID:29126136
Nucleic Acids Res., 45:D380-388 (2017).  PMID:27924025
Nucleic Acids Res. 2016 Jan 4;44(D1):D1202-13. PMID:26400175

>  <ROMol>  (404) 
<rdkit.Chem.rdchem.Mol object at 0x7c2905d33ae0>

>  <Drug_like>  (404) 
True

$$$$
19-Norepiandrosterone
     RDKit          2D

 20 23  0  0  0  0  0  0  0  0999 V2000
    2.5390    2.5611    0.0000 O   0  0  0  0  0  0  0  0  0  0  0  0
    2.0754    1.1345    0.0000 C   0  0  0  0  0  0  0  0  0  0  0  0
    0.6454    0.6645    0.0000 C   0  0  0  0  0  0  0  0  0  0  0  0
    0.6454   -0.8355    0.0000 C   0  0  0  0  0  0  0  0  0  0  0  0
   -0.6446   -1.5855    0.0000 C   0  0  0  0  0  0  0  0  0  0  0  0
   -1.9446   -0.8355    0.0000 C   0  0  0  0  0  0  0  0  0  0  0  0
   -3.2446   -1.5855    0.0000 C   0  0  0  0  0  0  0  0  0  0  0  0
   -3.2446   -3.0855    0.0000 C   0  0  0  0  0  0  0  0  0  0  0  0
   -1.9446   -3.8355    0.0000 C   0  0  0  0  0  0  0  0  0  0  0  0
   -0.6446   -3.0855    0.0000 C   0  0  0  0  0  0  0  0  0  0  0  0
   -4.5446   -3.8355    0.0000 C   0  0  0  0  0  0  0  0  0  0  0  0
   -5.8446   -3.0855    0.0000 C   0  0  0  0  0  0  0  0  0  0  0  0
   -7.3218   -2.8252    0.0000 O   0  0  0  0  0  0  0  0  0  0  0  0
   -5.8446   -1.5855    0.0000 C   0  0  0  0  0  0  0  0  0  0  0  0
   -4.5446   -0.8355    0.0000 C   0  0  0  0  0  0  0  0  0  0  0  0
   -1.9446    0.6645    0.0000 C   0  0  0  0  0  0  0  0  0  0  0  0
   -0.6446    1.4145    0.0000 C   0  0  0  0  0  0  0  0  0  0  0  0
    2.0754   -1.2955    0.0000 C   0  0  0  0  0  0  0  0  0  0  0  0
    2.9554   -0.0855    0.0000 C   0  0  0  0  0  0  0  0  0  0  0  0
    0.9522    3.5885    0.0000 C   0  0  0  0  0  0  0  0  0  0  0  0
  1  2  2  0
  2  3  1  0
  3  4  1  0
  4  5  1  0
  5  6  1  0
  6  7  1  0
  7  8  1  0
  8  9  1  0
  9 10  1  0
  5 10  1  0
  8 11  1  0
 11 12  1  0
 12 13  1  0
 12 14  1  0
 14 15  1  0
  7 15  1  0
  6 16  1  0
 16 17  1  0
  3 17  1  0
  4 18  1  0
 18 19  1  0
  2 19  1  0
  3 20  1  1
M  END
>  <cdk:Title>  (405) 
19-Norepiandrosterone

>  <1A2>  (405) 
N

>  <2A6>  (405) 
N

>  <2B6>  (405) 
N

>  <2C8>  (405) 
N

>  <2C9>  (405) 
N

>  <2C19>  (405) 
N

>  <2D6>  (405) 
N

>  <2E1>  (405) 
N

>  <3A4>  (405) 
N

>  <Citation>  (405) 
Nucleic Acids Res. 2018. Jan 4;46(D1):D608-17. PMID:29140435
Nucleic Acids Res. 2018 Jan 4;46(D1):D1074-D1082. PMID:29126136
Nucleic Acids Res., 45:D380-388 (2017).  PMID:27924025
Nucleic Acids Res. 2016 Jan 4;44(D1):D1202-13. PMID:26400175

>  <ROMol>  (405) 
<rdkit.Chem.rdchem.Mol object at 0x7c2905d33b50>

>  <Drug_like>  (405) 
True

$$$$
Alpha-L-Rhamnose
     RDKit          2D

 11 11  0  0  0  0  0  0  0  0999 V2000
    1.3063   -0.8771    0.0000 C   0  0  0  0  0  0  0  0  0  0  0  0
    1.3063    0.6129    0.0000 C   0  0  0  0  0  0  0  0  0  0  0  0
    0.0063    1.3729    0.0000 C   0  0  0  0  0  0  0  0  0  0  0  0
   -1.3137    0.6129    0.0000 C   0  0  0  0  0  0  0  0  0  0  0  0
   -1.3137   -0.8771    0.0000 C   0  0  0  0  0  0  0  0  0  0  0  0
    0.0063   -1.6271    0.0000 O   0  0  0  0  0  0  0  0  0  0  0  0
   -2.7915   -0.6201    0.0000 O   0  0  0  0  0  0  0  0  0  0  0  0
   -1.8256    2.0228    0.0000 O   0  0  0  0  0  0  0  0  0  0  0  0
    0.9751    2.5181    0.0000 O   0  0  0  0  0  0  0  0  0  0  0  0
    2.7831    0.3497    0.0000 O   0  0  0  0  0  0  0  0  0  0  0  0
    1.8191   -2.2868    0.0000 C   0  0  0  0  0  0  0  0  0  0  0  0
  1  2  1  0
  2  3  1  0
  3  4  1  0
  4  5  1  0
  5  6  1  0
  1  6  1  0
  5  7  1  0
  4  8  1  0
  3  9  1  0
  2 10  1  0
  1 11  1  0
M  END
>  <cdk:Title>  (406) 
Alpha-L-Rhamnose

>  <1A2>  (406) 
N

>  <2A6>  (406) 
N

>  <2B6>  (406) 
N

>  <2C8>  (406) 
N

>  <2C9>  (406) 
N

>  <2C19>  (406) 
N

>  <2D6>  (406) 
N

>  <2E1>  (406) 
N

>  <3A4>  (406) 
N

>  <Citation>  (406) 
Nucleic Acids Res. 2018. Jan 4;46(D1):D608-17. PMID:29140435
Nucleic Acids Res. 2018 Jan 4;46(D1):D1074-D1082. PMID:29126136
Nucleic Acids Res., 45:D380-388 (2017).  PMID:27924025
Nucleic Acids Res. 2016 Jan 4;44(D1):D1202-13. PMID:26400175

>  <ROMol>  (406) 
<rdkit.Chem.rdchem.Mol object at 0x7c2905d33bc0>

>  <Drug_like>  (406) 
True

$$$$
D-Proline
     RDKit          2D

  8  8  0  0  0  0  0  0  0  0999 V2000
    2.6416    0.2236    0.0000 O   0  0  0  0  0  0  0  0  0  0  0  0
    1.2149   -0.2397    0.0000 C   0  0  0  0  0  0  0  0  0  0  0  0
    0.9028   -1.7068    0.0000 O   0  0  0  0  0  0  0  0  0  0  0  0
    0.1004    0.7642    0.0000 C   0  0  0  0  0  0  0  0  0  0  0  0
   -0.7796   -0.4458    0.0000 N   0  0  0  0  0  0  0  0  0  0  0  0
   -2.2096    0.0142    0.0000 C   0  0  0  0  0  0  0  0  0  0  0  0
   -2.2096    1.5142    0.0000 C   0  0  0  0  0  0  0  0  0  0  0  0
   -0.7796    1.9742    0.0000 C   0  0  0  0  0  0  0  0  0  0  0  0
  1  2  1  0
  2  3  2  0
  2  4  1  0
  4  5  1  0
  5  6  1  0
  6  7  1  0
  7  8  1  0
  4  8  1  0
M  END
>  <cdk:Title>  (407) 
D-Proline

>  <1A2>  (407) 
N

>  <2A6>  (407) 
N

>  <2B6>  (407) 
N

>  <2C8>  (407) 
N

>  <2C9>  (407) 
N

>  <2C19>  (407) 
N

>  <2D6>  (407) 
N

>  <2E1>  (407) 
N

>  <3A4>  (407) 
N

>  <Citation>  (407) 
Nucleic Acids Res. 2018. Jan 4;46(D1):D608-17. PMID:29140435
Nucleic Acids Res. 2018 Jan 4;46(D1):D1074-D1082. PMID:29126136
Nucleic Acids Res., 45:D380-388 (2017).  PMID:27924025
Nucleic Acids Res. 2016 Jan 4;44(D1):D1202-13. PMID:26400175

>  <ROMol>  (407) 
<rdkit.Chem.rdchem.Mol object at 0x7c2905d33c30>

>  <Drug_like>  (407) 
True

$$$$
Kuwanon a
     RDKit          2D

 31 34  0  0  0  0  0  0  0  0999 V2000
   -2.7926   -0.4460    0.0000 C   0  0  0  0  0  0  0  0  0  0  0  0
   -2.7928   -1.9460    0.0000 C   0  0  0  0  0  0  0  0  0  0  0  0
   -4.0920   -2.6958    0.0000 C   0  0  0  0  0  0  0  0  0  0  0  0
   -1.4939   -2.6962    0.0000 C   0  0  0  0  0  0  0  0  0  0  0  0
   -0.1948   -1.9464    0.0000 C   0  0  0  0  0  0  0  0  0  0  0  0
    1.1041   -2.6966    0.0000 C   0  0  0  0  0  0  0  0  0  0  0  0
    1.1041   -4.1974    0.0000 C   0  0  0  0  0  0  0  0  0  0  0  0
    2.4034   -4.9487    0.0000 C   0  0  0  0  0  0  0  0  0  0  0  0
    2.4034   -6.4495    0.0000 C   0  0  0  0  0  0  0  0  0  0  0  0
    3.7027   -7.2007    0.0000 C   0  0  0  0  0  0  0  0  0  0  0  0
    5.0020   -6.4512    0.0000 C   0  0  0  0  0  0  0  0  0  0  0  0
    5.0020   -4.9503    0.0000 C   0  0  0  0  0  0  0  0  0  0  0  0
    3.7027   -4.1991    0.0000 C   0  0  0  0  0  0  0  0  0  0  0  0
    3.7027   -2.6982    0.0000 O   0  0  0  0  0  0  0  0  0  0  0  0
    2.4034   -1.9470    0.0000 C   0  0  0  0  0  0  0  0  0  0  0  0
    2.4041   -0.4470    0.0000 C   0  0  0  0  0  0  0  0  0  0  0  0
    1.1045    0.3036    0.0000 C   0  0  0  0  0  0  0  0  0  0  0  0
    1.1052    1.8036    0.0000 C   0  0  0  0  0  0  0  0  0  0  0  0
    2.4056    2.5530    0.0000 C   0  0  0  0  0  0  0  0  0  0  0  0
    3.7052    1.8024    0.0000 C   0  0  0  0  0  0  0  0  0  0  0  0
    5.0056    2.5517    0.0000 C   0  0  0  0  0  0  0  0  0  0  0  0
    6.3052    1.8011    0.0000 C   0  0  0  0  0  0  0  0  0  0  0  0
    6.3045    0.3011    0.0000 C   0  0  0  0  0  0  0  0  0  0  0  0
    7.7819    0.5607    0.0000 C   0  0  0  0  0  0  0  0  0  0  0  0
    6.9804   -1.5599    0.0000 C   0  0  0  0  0  0  0  0  0  0  0  0
    5.0041   -0.4483    0.0000 O   0  0  0  0  0  0  0  0  0  0  0  0
    3.7045    0.3024    0.0000 C   0  0  0  0  0  0  0  0  0  0  0  0
    2.4063    4.0530    0.0000 O   0  0  0  0  0  0  0  0  0  0  0  0
    6.3009   -7.2014    0.0000 O   0  0  0  0  0  0  0  0  0  0  0  0
    1.1041   -7.1991    0.0000 O   0  0  0  0  0  0  0  0  0  0  0  0
   -0.1951   -4.9470    0.0000 O   0  0  0  0  0  0  0  0  0  0  0  0
  1  2  1  0
  2  3  1  0
  2  4  2  0
  4  5  1  0
  5  6  1  0
  6  7  1  0
  7  8  1  0
  8  9  2  0
  9 10  1  0
 10 11  2  0
 11 12  1  0
 12 13  2  0
  8 13  1  0
 13 14  1  0
 14 15  1  0
  6 15  2  0
 15 16  1  0
 16 17  2  0
 17 18  1  0
 18 19  2  0
 19 20  1  0
 20 21  1  0
 21 22  2  0
 22 23  1  0
 23 24  1  0
 23 25  1  0
 23 26  1  0
 26 27  1  0
 20 27  2  0
 16 27  1  0
 19 28  1  0
 11 29  1  0
  9 30  1  0
  7 31  2  0
M  END
>  <cdk:Title>  (408) 
Kuwanon a

>  <1A2>  (408) 
N

>  <2A6>  (408) 
N

>  <2B6>  (408) 
N

>  <2C8>  (408) 
N

>  <2C9>  (408) 
N

>  <2C19>  (408) 
N

>  <2D6>  (408) 
N

>  <2E1>  (408) 
N

>  <3A4>  (408) 
N

>  <Citation>  (408) 
Nucleic Acids Res. 2018. Jan 4;46(D1):D608-17. PMID:29140435
Nucleic Acids Res. 2018 Jan 4;46(D1):D1074-D1082. PMID:29126136
Nucleic Acids Res., 45:D380-388 (2017).  PMID:27924025
Nucleic Acids Res. 2016 Jan 4;44(D1):D1202-13. PMID:26400175

>  <ROMol>  (408) 
<rdkit.Chem.rdchem.Mol object at 0x7c2905d33ca0>

>  <Drug_like>  (408) 
True

$$$$
Deacetyldiltiazem
     RDKit          2D

 26 28  0  0  0  0  0  0  0  0999 V2000
   -1.1816    2.4112    0.0000 S   0  0  0  0  0  0  0  0  0  0  0  0
    0.2784    2.0712    0.0000 C   0  0  0  0  0  0  0  0  0  0  0  0
    0.9284    0.7212    0.0000 C   0  0  0  0  0  0  0  0  0  0  0  0
    3.2270   -1.1118    0.0000 O   0  0  0  0  0  0  0  0  0  0  0  0
    0.2784   -0.6288    0.0000 C   0  0  0  0  0  0  0  0  0  0  0  0
    1.2162   -1.7995    0.0000 O   0  0  0  0  0  0  0  0  0  0  0  0
   -1.1816   -0.9688    0.0000 N   0  0  0  0  0  0  0  0  0  0  0  0
   -1.5148   -2.4314    0.0000 C   0  0  0  0  0  0  0  0  0  0  0  0
   -0.4149   -3.4512    0.0000 C   0  0  0  0  0  0  0  0  0  0  0  0
   -0.7481   -4.9137    0.0000 N   0  0  0  0  0  0  0  0  0  0  0  0
    0.3519   -5.9336    0.0000 C   0  0  0  0  0  0  0  0  0  0  0  0
   -2.6399   -5.4981    0.0000 C   0  0  0  0  0  0  0  0  0  0  0  0
   -2.3516   -0.0288    0.0000 C   0  0  0  0  0  0  0  0  0  0  0  0
   -2.3516    1.4712    0.0000 C   0  0  0  0  0  0  0  0  0  0  0  0
   -3.6516    2.2212    0.0000 C   0  0  0  0  0  0  0  0  0  0  0  0
   -4.9516    1.4712    0.0000 C   0  0  0  0  0  0  0  0  0  0  0  0
   -4.9516   -0.0288    0.0000 C   0  0  0  0  0  0  0  0  0  0  0  0
   -3.6516   -0.7788    0.0000 C   0  0  0  0  0  0  0  0  0  0  0  0
    3.1457    2.7210    0.0000 C   0  0  0  0  0  0  0  0  0  0  0  0
    3.5829    4.1559    0.0000 C   0  0  0  0  0  0  0  0  0  0  0  0
    5.0164    4.5031    0.0000 C   0  0  0  0  0  0  0  0  0  0  0  0
    6.0891    3.3921    0.0000 C   0  0  0  0  0  0  0  0  0  0  0  0
    7.5475    3.7430    0.0000 O   0  0  0  0  0  0  0  0  0  0  0  0
    7.9729    5.1814    0.0000 C   0  0  0  0  0  0  0  0  0  0  0  0
    5.6519    1.9573    0.0000 C   0  0  0  0  0  0  0  0  0  0  0  0
    4.1419    1.6334    0.0000 C   0  0  0  0  0  0  0  0  0  0  0  0
  1  2  1  0
  2  3  1  0
  3  4  1  0
  3  5  1  0
  5  6  2  0
  5  7  1  0
  7  8  1  0
  8  9  1  0
  9 10  1  0
 10 11  1  0
 10 12  1  0
  7 13  1  0
 13 14  2  0
  1 14  1  0
 14 15  1  0
 15 16  2  0
 16 17  1  0
 17 18  2  0
 13 18  1  0
  2 19  1  0
 19 20  2  0
 20 21  1  0
 21 22  2  0
 22 23  1  0
 23 24  1  0
 22 25  1  0
 25 26  2  0
 19 26  1  0
M  END
>  <cdk:Title>  (409) 
Deacetyldiltiazem

>  <1A2>  (409) 
N

>  <2A6>  (409) 
N

>  <2B6>  (409) 
N

>  <2C8>  (409) 
N

>  <2C9>  (409) 
N

>  <2C19>  (409) 
N

>  <2D6>  (409) 
N

>  <2E1>  (409) 
N

>  <3A4>  (409) 
N

>  <Citation>  (409) 
Nucleic Acids Res. 2018. Jan 4;46(D1):D608-17. PMID:29140435
Nucleic Acids Res. 2018 Jan 4;46(D1):D1074-D1082. PMID:29126136
Nucleic Acids Res., 45:D380-388 (2017).  PMID:27924025
Nucleic Acids Res. 2016 Jan 4;44(D1):D1202-13. PMID:26400175

>  <ROMol>  (409) 
<rdkit.Chem.rdchem.Mol object at 0x7c2905d33d10>

>  <Drug_like>  (409) 
True

$$$$
L-Arabitol
     RDKit          2D

 10  9  0  0  0  0  0  0  0  0999 V2000
    2.5981   -0.0000    0.0000 C   0  0  0  0  0  0  0  0  0  0  0  0
    1.2990   -0.7500    0.0000 O   0  0  0  0  0  0  0  0  0  0  0  0
    4.3128   -0.9900    0.0000 C   0  0  0  0  0  0  0  0  0  0  0  0
    3.3486   -2.1391    0.0000 O   0  0  0  0  0  0  0  0  0  0  0  0
    6.0275   -0.0000    0.0000 C   0  0  0  0  0  0  0  0  0  0  0  0
    7.3266   -0.7500    0.0000 C   0  0  0  0  0  0  0  0  0  0  0  0
    8.6256   -0.0000    0.0000 C   0  0  0  0  0  0  0  0  0  0  0  0
    8.6256    1.5000    0.0000 O   0  0  0  0  0  0  0  0  0  0  0  0
    6.3624   -1.8991    0.0000 O   0  0  0  0  0  0  0  0  0  0  0  0
    6.9917    1.1491    0.0000 O   0  0  0  0  0  0  0  0  0  0  0  0
  1  2  1  0
  1  3  1  0
  3  4  1  0
  3  5  1  0
  5  6  1  0
  6  7  1  0
  7  8  1  0
  6  9  1  0
  5 10  1  0
M  END
>  <cdk:Title>  (410) 
L-Arabitol

>  <1A2>  (410) 
N

>  <2A6>  (410) 
N

>  <2B6>  (410) 
N

>  <2C8>  (410) 
N

>  <2C9>  (410) 
N

>  <2C19>  (410) 
N

>  <2D6>  (410) 
N

>  <2E1>  (410) 
N

>  <3A4>  (410) 
N

>  <Citation>  (410) 
Nucleic Acids Res. 2018. Jan 4;46(D1):D608-17. PMID:29140435
Nucleic Acids Res. 2018 Jan 4;46(D1):D1074-D1082. PMID:29126136
Nucleic Acids Res., 45:D380-388 (2017).  PMID:27924025
Nucleic Acids Res. 2016 Jan 4;44(D1):D1202-13. PMID:26400175

>  <ROMol>  (410) 
<rdkit.Chem.rdchem.Mol object at 0x7c2905d33d80>

>  <Drug_like>  (410) 
True

$$$$
D-Arabino-hexos-2-ulose
     RDKit          2D

 12 11  0  0  0  0  0  0  0  0999 V2000
    7.7942    1.5000    0.0000 O   0  0  0  0  0  0  0  0  0  0  0  0
    7.7942   -0.0000    0.0000 C   0  0  0  0  0  0  0  0  0  0  0  0
    6.4952   -0.7500    0.0000 C   0  0  0  0  0  0  0  0  0  0  0  0
    4.7805    0.2400    0.0000 C   0  0  0  0  0  0  0  0  0  0  0  0
    3.4814   -0.5100    0.0000 C   0  0  0  0  0  0  0  0  0  0  0  0
    2.1824    0.2400    0.0000 C   0  0  0  0  0  0  0  0  0  0  0  0
    2.1824    1.7400    0.0000 C   0  0  0  0  0  0  0  0  0  0  0  0
    3.4814    2.4900    0.0000 O   0  0  0  0  0  0  0  0  0  0  0  0
    0.8833   -0.5100    0.0000 O   0  0  0  0  0  0  0  0  0  0  0  0
    2.5172   -1.6591    0.0000 O   0  0  0  0  0  0  0  0  0  0  0  0
    5.7446    1.3891    0.0000 O   0  0  0  0  0  0  0  0  0  0  0  0
    5.5310   -1.8991    0.0000 O   0  0  0  0  0  0  0  0  0  0  0  0
  1  2  1  0
  2  3  1  0
  3  4  1  0
  4  5  1  0
  5  6  1  0
  6  7  1  0
  7  8  2  0
  6  9  2  0
  5 10  1  0
  4 11  1  0
  3 12  1  0
M  END
>  <cdk:Title>  (411) 
D-Arabino-hexos-2-ulose

>  <1A2>  (411) 
N

>  <2A6>  (411) 
N

>  <2B6>  (411) 
N

>  <2C8>  (411) 
N

>  <2C9>  (411) 
N

>  <2C19>  (411) 
N

>  <2D6>  (411) 
N

>  <2E1>  (411) 
N

>  <3A4>  (411) 
N

>  <Citation>  (411) 
Nucleic Acids Res. 2018. Jan 4;46(D1):D608-17. PMID:29140435
Nucleic Acids Res. 2018 Jan 4;46(D1):D1074-D1082. PMID:29126136
Nucleic Acids Res., 45:D380-388 (2017).  PMID:27924025
Nucleic Acids Res. 2016 Jan 4;44(D1):D1202-13. PMID:26400175

>  <ROMol>  (411) 
<rdkit.Chem.rdchem.Mol object at 0x7c2905d33df0>

>  <Drug_like>  (411) 
True

$$$$
5a-Androst-3-en-17-one
     RDKit          2D

 20 23  0  0  0  0  0  0  0  0999 V2000
    2.6193   -5.7057    0.0000 C   0  0  0  0  0  0  0  0  0  0  0  0
    4.0493   -6.1657    0.0000 C   0  0  0  0  0  0  0  0  0  0  0  0
    4.9293   -4.9557    0.0000 C   0  0  0  0  0  0  0  0  0  0  0  0
    4.0493   -3.7457    0.0000 C   0  0  0  0  0  0  0  0  0  0  0  0
    4.5146   -2.3196    0.0000 O   0  0  0  0  0  0  0  0  0  0  0  0
    2.6193   -4.2057    0.0000 C   0  0  0  0  0  0  0  0  0  0  0  0
    1.3193   -3.4557    0.0000 C   0  0  0  0  0  0  0  0  0  0  0  0
    0.0193   -4.2057    0.0000 C   0  0  0  0  0  0  0  0  0  0  0  0
    0.0193   -5.7057    0.0000 C   0  0  0  0  0  0  0  0  0  0  0  0
    1.3193   -6.4557    0.0000 C   0  0  0  0  0  0  0  0  0  0  0  0
    1.3193   -7.9557    0.0000 C   0  0  0  0  0  0  0  0  0  0  0  0
    0.0193   -8.7057    0.0000 C   0  0  0  0  0  0  0  0  0  0  0  0
   -1.2807   -7.9557    0.0000 C   0  0  0  0  0  0  0  0  0  0  0  0
   -2.5807   -8.7057    0.0000 C   0  0  0  0  0  0  0  0  0  0  0  0
   -3.8807   -7.9557    0.0000 C   0  0  0  0  0  0  0  0  0  0  0  0
   -3.8807   -6.4557    0.0000 C   0  0  0  0  0  0  0  0  0  0  0  0
   -2.5807   -5.7057    0.0000 C   0  0  0  0  0  0  0  0  0  0  0  0
   -1.2807   -6.4557    0.0000 C   0  0  0  0  0  0  0  0  0  0  0  0
   -1.2807   -3.5157    0.0000 C   0  0  0  0  0  0  0  0  0  0  0  0
    2.9304   -1.2822    0.0000 C   0  0  0  0  0  0  0  0  0  0  0  0
  1  2  1  0
  2  3  1  0
  3  4  1  0
  4  5  2  0
  4  6  1  0
  1  6  1  0
  6  7  1  0
  7  8  1  0
  8  9  1  0
  9 10  1  0
  1 10  1  0
 10 11  1  0
 11 12  1  0
 12 13  1  0
 13 14  1  0
 14 15  2  0
 15 16  1  0
 16 17  1  0
 17 18  1  0
 13 18  1  0
  9 18  1  0
 18 19  1  1
  6 20  1  1
M  END
>  <cdk:Title>  (412) 
5a-Androst-3-en-17-one

>  <1A2>  (412) 
N

>  <2A6>  (412) 
N

>  <2B6>  (412) 
N

>  <2C8>  (412) 
N

>  <2C9>  (412) 
N

>  <2C19>  (412) 
N

>  <2D6>  (412) 
N

>  <2E1>  (412) 
N

>  <3A4>  (412) 
N

>  <Citation>  (412) 
Nucleic Acids Res. 2018. Jan 4;46(D1):D608-17. PMID:29140435
Nucleic Acids Res. 2018 Jan 4;46(D1):D1074-D1082. PMID:29126136
Nucleic Acids Res., 45:D380-388 (2017).  PMID:27924025
Nucleic Acids Res. 2016 Jan 4;44(D1):D1202-13. PMID:26400175

>  <ROMol>  (412) 
<rdkit.Chem.rdchem.Mol object at 0x7c2905d33e60>

>  <Drug_like>  (412) 
True

$$$$
Acetylcarnosine
     RDKit          2D

 19 19  0  0  0  0  0  0  0  0999 V2000
   -1.4500   -0.9407    0.0000 C   0  0  0  0  0  0  0  0  0  0  0  0
   -0.5418    0.2531    0.0000 C   0  0  0  0  0  0  0  0  0  0  0  0
   -1.1215    1.6365    0.0000 O   0  0  0  0  0  0  0  0  0  0  0  0
    0.9462    0.0634    0.0000 N   0  0  0  0  0  0  0  0  0  0  0  0
    1.8544    1.2572    0.0000 C   0  0  0  0  0  0  0  0  0  0  0  0
    3.3424    1.0676    0.0000 C   0  0  0  0  0  0  0  0  0  0  0  0
    4.2506    2.2614    0.0000 C   0  0  0  0  0  0  0  0  0  0  0  0
    3.6709    3.6448    0.0000 O   0  0  0  0  0  0  0  0  0  0  0  0
    5.7386    2.0717    0.0000 N   0  0  0  0  0  0  0  0  0  0  0  0
    6.6468    3.2655    0.0000 C   0  0  0  0  0  0  0  0  0  0  0  0
    8.6109    3.0151    0.0000 C   0  0  0  0  0  0  0  0  0  0  0  0
    9.5191    4.2089    0.0000 C   0  0  0  0  0  0  0  0  0  0  0  0
    9.0891    5.6489    0.0000 C   0  0  0  0  0  0  0  0  0  0  0  0
   10.3191    6.4989    0.0000 N   0  0  0  0  0  0  0  0  0  0  0  0
   11.5091    5.5889    0.0000 C   0  0  0  0  0  0  0  0  0  0  0  0
   11.0091    4.1789    0.0000 N   0  0  0  0  0  0  0  0  0  0  0  0
    7.0919    4.6979    0.0000 C   0  0  0  0  0  0  0  0  0  0  0  0
    6.0740    5.7996    0.0000 O   0  0  0  0  0  0  0  0  0  0  0  0
    8.5550    5.0286    0.0000 O   0  0  0  0  0  0  0  0  0  0  0  0
  1  2  1  0
  2  3  2  0
  2  4  1  0
  4  5  1  0
  5  6  1  0
  6  7  1  0
  7  8  2  0
  7  9  1  0
  9 10  1  0
 10 11  1  0
 11 12  1  0
 12 13  2  0
 13 14  1  0
 14 15  2  0
 15 16  1  0
 12 16  1  0
 10 17  1  0
 17 18  1  0
 17 19  2  0
M  END
>  <cdk:Title>  (413) 
Acetylcarnosine

>  <1A2>  (413) 
N

>  <2A6>  (413) 
N

>  <2B6>  (413) 
N

>  <2C8>  (413) 
N

>  <2C9>  (413) 
N

>  <2C19>  (413) 
N

>  <2D6>  (413) 
N

>  <2E1>  (413) 
N

>  <3A4>  (413) 
N

>  <Citation>  (413) 
Nucleic Acids Res. 2018. Jan 4;46(D1):D608-17. PMID:29140435
Nucleic Acids Res. 2018 Jan 4;46(D1):D1074-D1082. PMID:29126136
Nucleic Acids Res., 45:D380-388 (2017).  PMID:27924025
Nucleic Acids Res. 2016 Jan 4;44(D1):D1202-13. PMID:26400175

>  <ROMol>  (413) 
<rdkit.Chem.rdchem.Mol object at 0x7c2905d33f40>

>  <Drug_like>  (413) 
True

$$$$
3-Methylene-L-norleucine
     RDKit          2D

 10  9  0  0  0  0  0  0  0  0999 V2000
    1.4772   -1.8991    0.0000 C   0  0  0  0  0  0  0  0  0  0  0  0
    1.4772   -0.3991    0.0000 C   0  0  0  0  0  0  0  0  0  0  0  0
    2.7762    0.3509    0.0000 C   0  0  0  0  0  0  0  0  0  0  0  0
    2.7762    1.8509    0.0000 C   0  0  0  0  0  0  0  0  0  0  0  0
    1.4772    2.6009    0.0000 C   0  0  0  0  0  0  0  0  0  0  0  0
    4.0753    2.6009    0.0000 C   0  0  0  0  0  0  0  0  0  0  0  0
    5.3743    1.8509    0.0000 C   0  0  0  0  0  0  0  0  0  0  0  0
    5.3743    0.3509    0.0000 O   0  0  0  0  0  0  0  0  0  0  0  0
    6.6734    2.6009    0.0000 O   0  0  0  0  0  0  0  0  0  0  0  0
    5.0395    3.7500    0.0000 N   0  0  0  0  0  0  0  0  0  0  0  0
  1  2  1  0
  2  3  1  0
  3  4  1  0
  4  5  2  0
  4  6  1  0
  6  7  1  0
  7  8  2  0
  7  9  1  0
  6 10  1  0
M  END
>  <cdk:Title>  (414) 
3-Methylene-L-norleucine

>  <1A2>  (414) 
N

>  <2A6>  (414) 
N

>  <2B6>  (414) 
N

>  <2C8>  (414) 
N

>  <2C9>  (414) 
N

>  <2C19>  (414) 
N

>  <2D6>  (414) 
N

>  <2E1>  (414) 
N

>  <3A4>  (414) 
N

>  <Citation>  (414) 
Nucleic Acids Res. 2018. Jan 4;46(D1):D608-17. PMID:29140435
Nucleic Acids Res. 2018 Jan 4;46(D1):D1074-D1082. PMID:29126136
Nucleic Acids Res., 45:D380-388 (2017).  PMID:27924025
Nucleic Acids Res. 2016 Jan 4;44(D1):D1202-13. PMID:26400175

>  <ROMol>  (414) 
<rdkit.Chem.rdchem.Mol object at 0x7c2905d5c0b0>

>  <Drug_like>  (414) 
True

$$$$
Dulciol c
     RDKit          2D

 35 37  0  0  0  0  0  0  0  0999 V2000
   -8.1745   -0.3533    0.0000 C   0  0  0  0  0  0  0  0  0  0  0  0
   -8.1745   -1.8533    0.0000 C   0  0  0  0  0  0  0  0  0  0  0  0
   -6.8745   -2.6033    0.0000 C   0  0  0  0  0  0  0  0  0  0  0  0
   -5.5745   -1.8533    0.0000 C   0  0  0  0  0  0  0  0  0  0  0  0
   -5.5745   -0.3533    0.0000 C   0  0  0  0  0  0  0  0  0  0  0  0
   -6.8745    0.3967    0.0000 C   0  0  0  0  0  0  0  0  0  0  0  0
   -6.8745    1.8967    0.0000 O   0  0  0  0  0  0  0  0  0  0  0  0
   -4.2745    0.3967    0.0000 C   0  0  0  0  0  0  0  0  0  0  0  0
   -2.9745   -0.3533    0.0000 C   0  0  0  0  0  0  0  0  0  0  0  0
   -2.9745   -1.8533    0.0000 C   0  0  0  0  0  0  0  0  0  0  0  0
   -4.2745   -2.6033    0.0000 O   0  0  0  0  0  0  0  0  0  0  0  0
   -1.6745   -2.6033    0.0000 C   0  0  0  0  0  0  0  0  0  0  0  0
   -0.3745   -1.8533    0.0000 C   0  0  0  0  0  0  0  0  0  0  0  0
   -0.3745   -0.3533    0.0000 C   0  0  0  0  0  0  0  0  0  0  0  0
   -1.6745    0.3967    0.0000 C   0  0  0  0  0  0  0  0  0  0  0  0
   -1.6745    1.8967    0.0000 C   0  0  0  0  0  0  0  0  0  0  0  0
    0.8716    3.3667    0.0000 C   0  0  0  0  0  0  0  0  0  0  0  0
    0.8716    5.3467    0.0000 C   0  0  0  0  0  0  0  0  0  0  0  0
    2.5863    6.3367    0.0000 C   0  0  0  0  0  0  0  0  0  0  0  0
   -0.6056    5.0862    0.0000 C   0  0  0  0  0  0  0  0  0  0  0  0
    0.3586    6.7562    0.0000 O   0  0  0  0  0  0  0  0  0  0  0  0
    0.9244    0.3969    0.0000 O   0  0  0  0  0  0  0  0  0  0  0  0
    0.9244   -2.6035    0.0000 O   0  0  0  0  0  0  0  0  0  0  0  0
   -1.6745   -4.1033    0.0000 C   0  0  0  0  0  0  0  0  0  0  0  0
   -2.9736   -4.8533    0.0000 C   0  0  0  0  0  0  0  0  0  0  0  0
   -2.9736   -6.3533    0.0000 C   0  0  0  0  0  0  0  0  0  0  0  0
   -4.2726   -7.1033    0.0000 C   0  0  0  0  0  0  0  0  0  0  0  0
   -1.6745   -7.1033    0.0000 C   0  0  0  0  0  0  0  0  0  0  0  0
   -4.2745    1.8967    0.0000 O   0  0  0  0  0  0  0  0  0  0  0  0
   -6.8745   -4.1033    0.0000 O   0  0  0  0  0  0  0  0  0  0  0  0
  -10.3047    0.8770    0.0000 C   0  0  0  0  0  0  0  0  0  0  0  0
  -12.0196   -0.1127    0.0000 C   0  0  0  0  0  0  0  0  0  0  0  0
  -13.3186    0.6375    0.0000 C   0  0  0  0  0  0  0  0  0  0  0  0
  -12.1942    3.1295    0.0000 C   0  0  0  0  0  0  0  0  0  0  0  0
   -9.3404    2.0259    0.0000 C   0  0  0  0  0  0  0  0  0  0  0  0
  1  2  2  0
  2  3  1  0
  3  4  2  0
  4  5  1  0
  5  6  2  0
  1  6  1  0
  6  7  1  0
  5  8  1  0
  8  9  1  0
  9 10  2  0
 10 11  1  0
  4 11  1  0
 10 12  1  0
 12 13  2  0
 13 14  1  0
 14 15  2  0
  9 15  1  0
 15 16  1  0
 16 17  1  0
 17 18  1  0
 18 19  1  0
 18 20  1  0
 18 21  1  0
 14 22  1  0
 13 23  1  0
 12 24  1  0
 24 25  1  0
 25 26  2  0
 26 27  1  0
 26 28  1  0
  8 29  2  0
  3 30  1  0
  1 31  1  0
 31 32  1  0
 32 33  2  0
 31 34  1  0
 31 35  1  0
M  END
>  <cdk:Title>  (415) 
Dulciol c

>  <1A2>  (415) 
N

>  <2A6>  (415) 
N

>  <2B6>  (415) 
N

>  <2C8>  (415) 
N

>  <2C9>  (415) 
N

>  <2C19>  (415) 
N

>  <2D6>  (415) 
N

>  <2E1>  (415) 
N

>  <3A4>  (415) 
N

>  <Citation>  (415) 
Nucleic Acids Res. 2018. Jan 4;46(D1):D608-17. PMID:29140435
Nucleic Acids Res. 2018 Jan 4;46(D1):D1074-D1082. PMID:29126136
Nucleic Acids Res., 45:D380-388 (2017).  PMID:27924025
Nucleic Acids Res. 2016 Jan 4;44(D1):D1202-13. PMID:26400175

>  <ROMol>  (415) 
<rdkit.Chem.rdchem.Mol object at 0x7c2905d5c190>

>  <Drug_like>  (415) 
True

$$$$
(2R)-2-{[(2R)-2-amino-1-hydroxy-4-(methylsulfanyl)butylidene]amino}butanedioic a
     RDKit          2D

 17 16  0  0  0  0  0  0  0  0999 V2000
   13.8310    6.4853    0.0000 O   0  0  0  0  0  0  0  0  0  0  0  0
   13.8310    4.9853    0.0000 C   0  0  0  0  0  0  0  0  0  0  0  0
   15.1301    4.2353    0.0000 O   0  0  0  0  0  0  0  0  0  0  0  0
   12.5320    4.2353    0.0000 C   0  0  0  0  0  0  0  0  0  0  0  0
   11.2330    4.9853    0.0000 C   0  0  0  0  0  0  0  0  0  0  0  0
    9.9339    4.2353    0.0000 N   0  0  0  0  0  0  0  0  0  0  0  0
    9.9339    2.7353    0.0000 C   0  0  0  0  0  0  0  0  0  0  0  0
   11.2330    1.9853    0.0000 O   0  0  0  0  0  0  0  0  0  0  0  0
    8.6349    1.9853    0.0000 C   0  0  0  0  0  0  0  0  0  0  0  0
    9.5991    0.8363    0.0000 N   0  0  0  0  0  0  0  0  0  0  0  0
    7.3358    2.7353    0.0000 C   0  0  0  0  0  0  0  0  0  0  0  0
    6.0368    1.9853    0.0000 C   0  0  0  0  0  0  0  0  0  0  0  0
    6.0368    0.4853    0.0000 S   0  0  0  0  0  0  0  0  0  0  0  0
    4.7378   -0.2647    0.0000 C   0  0  0  0  0  0  0  0  0  0  0  0
   10.2688    6.1344    0.0000 C   0  0  0  0  0  0  0  0  0  0  0  0
    8.7916    5.8739    0.0000 O   0  0  0  0  0  0  0  0  0  0  0  0
   10.7818    7.5440    0.0000 O   0  0  0  0  0  0  0  0  0  0  0  0
  1  2  2  0
  2  3  1  0
  2  4  1  0
  4  5  1  0
  5  6  1  0
  6  7  1  0
  7  8  2  0
  7  9  1  0
  9 10  1  0
  9 11  1  0
 11 12  1  0
 12 13  1  0
 13 14  1  0
  5 15  1  0
 15 16  2  0
 15 17  1  0
M  END
>  <cdk:Title>  (416) 
(2R)-2-{[(2R)-2-amino-1-hydroxy-4-(methylsulfanyl)butylidene]amino}butanedioic acid

>  <1A2>  (416) 
N

>  <2A6>  (416) 
N

>  <2B6>  (416) 
N

>  <2C8>  (416) 
N

>  <2C9>  (416) 
N

>  <2C19>  (416) 
N

>  <2D6>  (416) 
N

>  <2E1>  (416) 
N

>  <3A4>  (416) 
N

>  <Citation>  (416) 
Nucleic Acids Res. 2018. Jan 4;46(D1):D608-17. PMID:29140435
Nucleic Acids Res. 2018 Jan 4;46(D1):D1074-D1082. PMID:29126136
Nucleic Acids Res., 45:D380-388 (2017).  PMID:27924025
Nucleic Acids Res. 2016 Jan 4;44(D1):D1202-13. PMID:26400175

>  <ROMol>  (416) 
<rdkit.Chem.rdchem.Mol object at 0x7c2905d5c270>

>  <Drug_like>  (416) 
True

$$$$
cis-Tetrahydro-4-methyl-2-(2-methyl-1-propenyl)-2H-pyran
     RDKit          2D

 11 11  0  0  0  0  0  0  0  0999 V2000
    2.7600    0.2500    0.0000 C   0  0  0  0  0  0  0  0  0  0  0  0
    3.2728   -1.1596    0.0000 C   0  0  0  0  0  0  0  0  0  0  0  0
    4.7499   -1.4204    0.0000 C   0  0  0  0  0  0  0  0  0  0  0  0
    2.3083   -2.3085    0.0000 C   0  0  0  0  0  0  0  0  0  0  0  0
    0.8312   -2.0477    0.0000 C   0  0  0  0  0  0  0  0  0  0  0  0
   -0.4679   -1.2977    0.0000 C   0  0  0  0  0  0  0  0  0  0  0  0
   -1.7674   -2.0485    0.0000 C   0  0  0  0  0  0  0  0  0  0  0  0
   -2.7732    0.7141    0.0000 C   0  0  0  0  0  0  0  0  0  0  0  0
   -1.7679   -3.5493    0.0000 C   0  0  0  0  0  0  0  0  0  0  0  0
   -0.4688   -4.2993    0.0000 C   0  0  0  0  0  0  0  0  0  0  0  0
    0.8307   -3.5485    0.0000 O   0  0  0  0  0  0  0  0  0  0  0  0
  1  2  1  0
  2  3  1  0
  2  4  2  0
  4  5  1  0
  5  6  1  0
  6  7  1  0
  7  8  1  0
  7  9  1  0
  9 10  1  0
 10 11  1  0
  5 11  1  0
M  END
>  <cdk:Title>  (417) 
cis-Tetrahydro-4-methyl-2-(2-methyl-1-propenyl)-2H-pyran

>  <1A2>  (417) 
N

>  <2A6>  (417) 
N

>  <2B6>  (417) 
N

>  <2C8>  (417) 
N

>  <2C9>  (417) 
N

>  <2C19>  (417) 
N

>  <2D6>  (417) 
N

>  <2E1>  (417) 
N

>  <3A4>  (417) 
N

>  <Citation>  (417) 
Nucleic Acids Res. 2018. Jan 4;46(D1):D608-17. PMID:29140435
Nucleic Acids Res. 2018 Jan 4;46(D1):D1074-D1082. PMID:29126136
Nucleic Acids Res., 45:D380-388 (2017).  PMID:27924025
Nucleic Acids Res. 2016 Jan 4;44(D1):D1202-13. PMID:26400175

>  <ROMol>  (417) 
<rdkit.Chem.rdchem.Mol object at 0x7c2905d5c350>

>  <Drug_like>  (417) 
True

$$$$
(5R)-5-Isopropyl-2-methyl-2-cyclohexen-1-one
     RDKit          2D

 11 11  0  0  0  0  0  0  0  0999 V2000
    1.0889    4.0028    0.0000 C   0  0  0  0  0  0  0  0  0  0  0  0
    1.0889    2.5028    0.0000 C   0  0  0  0  0  0  0  0  0  0  0  0
    2.3889    1.7528    0.0000 C   0  0  0  0  0  0  0  0  0  0  0  0
    2.3889    0.2528    0.0000 C   0  0  0  0  0  0  0  0  0  0  0  0
    1.0889   -0.4972    0.0000 C   0  0  0  0  0  0  0  0  0  0  0  0
   -0.2111    0.2528    0.0000 C   0  0  0  0  0  0  0  0  0  0  0  0
   -0.2111    1.7528    0.0000 C   0  0  0  0  0  0  0  0  0  0  0  0
   -1.5100    2.5030    0.0000 O   0  0  0  0  0  0  0  0  0  0  0  0
   -0.8007   -2.7496    0.0000 C   0  0  0  0  0  0  0  0  0  0  0  0
   -2.7506   -2.4060    0.0000 C   0  0  0  0  0  0  0  0  0  0  0  0
    0.7162   -4.0222    0.0000 C   0  0  0  0  0  0  0  0  0  0  0  0
  1  2  1  0
  2  3  2  0
  3  4  1  0
  4  5  1  0
  5  6  1  0
  6  7  1  0
  2  7  1  0
  7  8  2  0
  5  9  1  0
  9 10  1  0
  9 11  1  0
M  END
>  <cdk:Title>  (418) 
(5R)-5-Isopropyl-2-methyl-2-cyclohexen-1-one

>  <1A2>  (418) 
N

>  <2A6>  (418) 
N

>  <2B6>  (418) 
N

>  <2C8>  (418) 
N

>  <2C9>  (418) 
N

>  <2C19>  (418) 
N

>  <2D6>  (418) 
N

>  <2E1>  (418) 
N

>  <3A4>  (418) 
N

>  <Citation>  (418) 
Nucleic Acids Res. 2018. Jan 4;46(D1):D608-17. PMID:29140435
Nucleic Acids Res. 2018 Jan 4;46(D1):D1074-D1082. PMID:29126136
Nucleic Acids Res., 45:D380-388 (2017).  PMID:27924025
Nucleic Acids Res. 2016 Jan 4;44(D1):D1202-13. PMID:26400175

>  <ROMol>  (418) 
<rdkit.Chem.rdchem.Mol object at 0x7c2905d5c4a0>

>  <Drug_like>  (418) 
True

$$$$
4-Epiisocommunic acid
     RDKit          2D

 22 23  0  0  0  0  0  0  0  0999 V2000
    7.1252    5.1413    0.0000 C   0  0  0  0  0  0  0  0  0  0  0  0
    6.1611    3.9921    0.0000 C   0  0  0  0  0  0  0  0  0  0  0  0
    4.6839    4.2524    0.0000 C   0  0  0  0  0  0  0  0  0  0  0  0
    4.1707    5.6619    0.0000 C   0  0  0  0  0  0  0  0  0  0  0  0
    3.7198    3.1032    0.0000 C   0  0  0  0  0  0  0  0  0  0  0  0
    0.8245    3.6135    0.0000 C   0  0  0  0  0  0  0  0  0  0  0  0
   -1.0651    1.3611    0.0000 C   0  0  0  0  0  0  0  0  0  0  0  0
    0.2349    0.6111    0.0000 C   0  0  0  0  0  0  0  0  0  0  0  0
    1.5338    1.3613    0.0000 C   0  0  0  0  0  0  0  0  0  0  0  0
    0.2349   -0.8889    0.0000 C   0  0  0  0  0  0  0  0  0  0  0  0
   -1.0651   -1.6389    0.0000 C   0  0  0  0  0  0  0  0  0  0  0  0
   -2.3651   -0.8889    0.0000 C   0  0  0  0  0  0  0  0  0  0  0  0
   -2.3651    0.6111    0.0000 C   0  0  0  0  0  0  0  0  0  0  0  0
   -2.3651    3.5511    0.0000 C   0  0  0  0  0  0  0  0  0  0  0  0
   -3.6651    1.3611    0.0000 C   0  0  0  0  0  0  0  0  0  0  0  0
   -4.9651    0.6111    0.0000 C   0  0  0  0  0  0  0  0  0  0  0  0
   -4.9651   -0.8889    0.0000 C   0  0  0  0  0  0  0  0  0  0  0  0
   -3.6651   -1.6389    0.0000 C   0  0  0  0  0  0  0  0  0  0  0  0
   -5.5547   -3.8913    0.0000 C   0  0  0  0  0  0  0  0  0  0  0  0
   -2.1954   -4.1852    0.0000 C   0  0  0  0  0  0  0  0  0  0  0  0
   -0.6954   -4.1853    0.0000 O   0  0  0  0  0  0  0  0  0  0  0  0
   -2.9455   -5.4841    0.0000 O   0  0  0  0  0  0  0  0  0  0  0  0
  1  2  2  0
  2  3  1  0
  3  4  2  0
  3  5  1  0
  5  6  1  0
  6  7  1  0
  7  8  1  0
  8  9  2  0
  8 10  1  0
 10 11  1  0
 11 12  1  0
 12 13  1  0
  7 13  1  0
 13 14  1  1
 13 15  1  0
 15 16  1  0
 16 17  1  0
 17 18  1  0
 12 18  1  0
 18 19  1  1
 18 20  1  0
 20 21  2  0
 20 22  1  0
M  END
>  <cdk:Title>  (419) 
4-Epiisocommunic acid

>  <1A2>  (419) 
N

>  <2A6>  (419) 
N

>  <2B6>  (419) 
N

>  <2C8>  (419) 
N

>  <2C9>  (419) 
N

>  <2C19>  (419) 
N

>  <2D6>  (419) 
N

>  <2E1>  (419) 
N

>  <3A4>  (419) 
N

>  <Citation>  (419) 
Nucleic Acids Res. 2018. Jan 4;46(D1):D608-17. PMID:29140435
Nucleic Acids Res. 2018 Jan 4;46(D1):D1074-D1082. PMID:29126136
Nucleic Acids Res., 45:D380-388 (2017).  PMID:27924025
Nucleic Acids Res. 2016 Jan 4;44(D1):D1202-13. PMID:26400175

>  <ROMol>  (419) 
<rdkit.Chem.rdchem.Mol object at 0x7c2905d5c580>

>  <Drug_like>  (419) 
True

$$$$
Bovinic acid
     RDKit          2D

 20 19  0  0  0  0  0  0  0  0999 V2000
    5.2481   -9.8491    0.0000 O   0  0  0  0  0  0  0  0  0  0  0  0
    6.5472  -10.5991    0.0000 C   0  0  0  0  0  0  0  0  0  0  0  0
    6.5472  -12.0991    0.0000 O   0  0  0  0  0  0  0  0  0  0  0  0
    7.8462   -9.8491    0.0000 C   0  0  0  0  0  0  0  0  0  0  0  0
    9.1452  -10.5991    0.0000 C   0  0  0  0  0  0  0  0  0  0  0  0
   11.2757   -9.3691    0.0000 C   0  0  0  0  0  0  0  0  0  0  0  0
   12.9904  -10.3591    0.0000 C   0  0  0  0  0  0  0  0  0  0  0  0
   14.7051   -9.3691    0.0000 C   0  0  0  0  0  0  0  0  0  0  0  0
   16.4198  -10.3591    0.0000 C   0  0  0  0  0  0  0  0  0  0  0  0
   17.7189   -9.6091    0.0000 C   0  0  0  0  0  0  0  0  0  0  0  0
   19.0179  -10.3591    0.0000 C   0  0  0  0  0  0  0  0  0  0  0  0
   20.3170   -9.6091    0.0000 C   0  0  0  0  0  0  0  0  0  0  0  0
   20.3170   -8.1091    0.0000 C   0  0  0  0  0  0  0  0  0  0  0  0
   21.6160   -7.3591    0.0000 C   0  0  0  0  0  0  0  0  0  0  0  0
   21.6160   -5.8591    0.0000 C   0  0  0  0  0  0  0  0  0  0  0  0
   22.9150   -5.1091    0.0000 C   0  0  0  0  0  0  0  0  0  0  0  0
   22.9150   -2.6491    0.0000 C   0  0  0  0  0  0  0  0  0  0  0  0
   24.6298   -1.6591    0.0000 C   0  0  0  0  0  0  0  0  0  0  0  0
   24.6298   -0.1591    0.0000 C   0  0  0  0  0  0  0  0  0  0  0  0
   25.9288    0.5909    0.0000 C   0  0  0  0  0  0  0  0  0  0  0  0
  1  2  1  0
  2  3  2  0
  2  4  1  0
  4  5  1  0
  5  6  1  0
  6  7  1  0
  7  8  1  0
  8  9  1  0
  9 10  1  0
 10 11  1  0
 11 12  2  0
 12 13  1  0
 13 14  2  0
 14 15  1  0
 15 16  1  0
 16 17  1  0
 17 18  1  0
 18 19  1  0
 19 20  1  0
M  END
>  <cdk:Title>  (420) 
Bovinic acid

>  <1A2>  (420) 
N

>  <2A6>  (420) 
N

>  <2B6>  (420) 
N

>  <2C8>  (420) 
N

>  <2C9>  (420) 
N

>  <2C19>  (420) 
N

>  <2D6>  (420) 
N

>  <2E1>  (420) 
N

>  <3A4>  (420) 
N

>  <Citation>  (420) 
Nucleic Acids Res. 2018. Jan 4;46(D1):D608-17. PMID:29140435
Nucleic Acids Res. 2018 Jan 4;46(D1):D1074-D1082. PMID:29126136
Nucleic Acids Res., 45:D380-388 (2017).  PMID:27924025
Nucleic Acids Res. 2016 Jan 4;44(D1):D1202-13. PMID:26400175

>  <ROMol>  (420) 
<rdkit.Chem.rdchem.Mol object at 0x7c2905d5c5f0>

>  <Drug_like>  (420) 
True

$$$$
(2E_4Z)-2_4-Dodecadienal
     RDKit          2D

 13 12  0  0  0  0  0  0  0  0999 V2000
   -0.8314   -0.4800    0.0000 O   0  0  0  0  0  0  0  0  0  0  0  0
    0.4677   -1.2300    0.0000 C   0  0  0  0  0  0  0  0  0  0  0  0
    1.7667   -0.4800    0.0000 C   0  0  0  0  0  0  0  0  0  0  0  0
    3.0657   -1.2300    0.0000 C   0  0  0  0  0  0  0  0  0  0  0  0
    4.3648   -0.4800    0.0000 C   0  0  0  0  0  0  0  0  0  0  0  0
    5.6638   -1.2300    0.0000 C   0  0  0  0  0  0  0  0  0  0  0  0
    6.9628   -0.4800    0.0000 C   0  0  0  0  0  0  0  0  0  0  0  0
    8.2619   -1.2300    0.0000 C   0  0  0  0  0  0  0  0  0  0  0  0
    9.9766   -0.2400    0.0000 C   0  0  0  0  0  0  0  0  0  0  0  0
   11.6913   -1.2300    0.0000 C   0  0  0  0  0  0  0  0  0  0  0  0
   13.8218   -0.0000    0.0000 C   0  0  0  0  0  0  0  0  0  0  0  0
   15.1208   -0.7500    0.0000 C   0  0  0  0  0  0  0  0  0  0  0  0
   16.4198   -0.0000    0.0000 C   0  0  0  0  0  0  0  0  0  0  0  0
  1  2  2  0
  2  3  1  0
  3  4  2  0
  4  5  1  0
  5  6  2  0
  6  7  1  0
  7  8  1  0
  8  9  1  0
  9 10  1  0
 10 11  1  0
 11 12  1  0
 12 13  1  0
M  END
>  <cdk:Title>  (421) 
(2E_4Z)-2_4-Dodecadienal

>  <1A2>  (421) 
N

>  <2A6>  (421) 
N

>  <2B6>  (421) 
N

>  <2C8>  (421) 
N

>  <2C9>  (421) 
N

>  <2C19>  (421) 
N

>  <2D6>  (421) 
N

>  <2E1>  (421) 
N

>  <3A4>  (421) 
N

>  <Citation>  (421) 
Nucleic Acids Res. 2018. Jan 4;46(D1):D608-17. PMID:29140435
Nucleic Acids Res. 2018 Jan 4;46(D1):D1074-D1082. PMID:29126136
Nucleic Acids Res., 45:D380-388 (2017).  PMID:27924025
Nucleic Acids Res. 2016 Jan 4;44(D1):D1202-13. PMID:26400175

>  <ROMol>  (421) 
<rdkit.Chem.rdchem.Mol object at 0x7c2905d5c660>

>  <Drug_like>  (421) 
True

$$$$
ZINC59206760
     RDKit          2D

 15 17  0  0  0  0  0  0  0  0999 V2000
    0.5458   -5.0252    0.0000 C   0  0  0  0  0  0  0  0  0  0  0  0
   -1.3389   -3.4441    0.0000 C   0  0  0  0  0  0  0  0  0  0  0  0
   -2.8161   -3.1838    0.0000 C   0  0  0  0  0  0  0  0  0  0  0  0
    0.5507   -1.1918    0.0000 C   0  0  0  0  0  0  0  0  0  0  0  0
    1.8507   -0.4418    0.0000 C   0  0  0  0  0  0  0  0  0  0  0  0
    1.8507    1.0582    0.0000 C   0  0  0  0  0  0  0  0  0  0  0  0
    0.5507    1.8082    0.0000 C   0  0  0  0  0  0  0  0  0  0  0  0
    2.4402    4.0606    0.0000 C   0  0  0  0  0  0  0  0  0  0  0  0
   -0.7493    1.0582    0.0000 C   0  0  0  0  0  0  0  0  0  0  0  0
   -1.0593    2.5282    0.0000 C   0  0  0  0  0  0  0  0  0  0  0  0
   -2.5493    2.6782    0.0000 C   0  0  0  0  0  0  0  0  0  0  0  0
   -3.1593    1.3082    0.0000 C   0  0  0  0  0  0  0  0  0  0  0  0
   -4.6266    0.9966    0.0000 C   0  0  0  0  0  0  0  0  0  0  0  0
   -2.0493    0.3082    0.0000 C   0  0  0  0  0  0  0  0  0  0  0  0
   -0.7493   -0.4418    0.0000 C   0  0  0  0  0  0  0  0  0  0  0  0
  1  2  1  0
  2  3  1  0
  2  4  1  0
  4  5  1  0
  5  6  1  0
  6  7  1  0
  7  8  1  0
  7  9  1  0
  9 10  1  1
 10 11  1  0
 11 12  2  0
 12 13  1  0
 12 14  1  0
  9 14  1  0
 14 15  1  0
  4 15  1  0
  9 15  1  0
M  END
>  <cdk:Title>  (422) 
ZINC59206760

>  <1A2>  (422) 
N

>  <2A6>  (422) 
N

>  <2B6>  (422) 
N

>  <2C8>  (422) 
N

>  <2C9>  (422) 
N

>  <2C19>  (422) 
N

>  <2D6>  (422) 
N

>  <2E1>  (422) 
N

>  <3A4>  (422) 
N

>  <Citation>  (422) 
Nucleic Acids Res. 2018. Jan 4;46(D1):D608-17. PMID:29140435
Nucleic Acids Res. 2018 Jan 4;46(D1):D1074-D1082. PMID:29126136
Nucleic Acids Res., 45:D380-388 (2017).  PMID:27924025
Nucleic Acids Res. 2016 Jan 4;44(D1):D1202-13. PMID:26400175

>  <ROMol>  (422) 
<rdkit.Chem.rdchem.Mol object at 0x7c2905d5c6d0>

>  <Drug_like>  (422) 
True

$$$$
16-Ketoestradiol
     RDKit          2D

 21 24  0  0  0  0  0  0  0  0999 V2000
   -4.3629   -3.8046    0.0000 C   0  0  0  0  0  0  0  0  0  0  0  0
   -5.6618   -4.5548    0.0000 O   0  0  0  0  0  0  0  0  0  0  0  0
   -4.3629   -2.3046    0.0000 C   0  0  0  0  0  0  0  0  0  0  0  0
   -3.0629   -1.5546    0.0000 C   0  0  0  0  0  0  0  0  0  0  0  0
   -1.7629   -2.3046    0.0000 C   0  0  0  0  0  0  0  0  0  0  0  0
   -1.7629   -3.8046    0.0000 C   0  0  0  0  0  0  0  0  0  0  0  0
   -3.0629   -4.5546    0.0000 C   0  0  0  0  0  0  0  0  0  0  0  0
   -0.4629   -4.5546    0.0000 C   0  0  0  0  0  0  0  0  0  0  0  0
    0.8371   -3.8046    0.0000 C   0  0  0  0  0  0  0  0  0  0  0  0
    0.8371   -2.3046    0.0000 C   0  0  0  0  0  0  0  0  0  0  0  0
    2.1371   -1.5546    0.0000 C   0  0  0  0  0  0  0  0  0  0  0  0
    3.5571   -2.0146    0.0000 C   0  0  0  0  0  0  0  0  0  0  0  0
    4.4371   -0.8046    0.0000 C   0  0  0  0  0  0  0  0  0  0  0  0
    3.5571    0.4054    0.0000 C   0  0  0  0  0  0  0  0  0  0  0  0
    4.8562    1.1555    0.0000 O   0  0  0  0  0  0  0  0  0  0  0  0
    2.1371   -0.0546    0.0000 C   0  0  0  0  0  0  0  0  0  0  0  0
    2.4453    2.8692    0.0000 C   0  0  0  0  0  0  0  0  0  0  0  0
    0.8371    0.6954    0.0000 C   0  0  0  0  0  0  0  0  0  0  0  0
   -0.4629   -0.0546    0.0000 C   0  0  0  0  0  0  0  0  0  0  0  0
   -0.4629   -1.5546    0.0000 C   0  0  0  0  0  0  0  0  0  0  0  0
    5.9371   -0.8046    0.0000 O   0  0  0  0  0  0  0  0  0  0  0  0
  1  2  1  0
  1  3  2  0
  3  4  1  0
  4  5  2  0
  5  6  1  0
  6  7  2  0
  1  7  1  0
  6  8  1  0
  8  9  1  0
  9 10  1  0
 10 11  1  0
 11 12  1  0
 12 13  1  0
 13 14  1  0
 14 15  1  0
 14 16  1  0
 11 16  1  0
 16 17  1  1
 16 18  1  0
 18 19  1  0
 19 20  1  0
 10 20  1  0
  5 20  1  0
 13 21  2  0
M  END
>  <cdk:Title>  (423) 
16-Ketoestradiol

>  <1A2>  (423) 
N

>  <2A6>  (423) 
N

>  <2B6>  (423) 
N

>  <2C8>  (423) 
N

>  <2C9>  (423) 
N

>  <2C19>  (423) 
N

>  <2D6>  (423) 
N

>  <2E1>  (423) 
N

>  <3A4>  (423) 
N

>  <Citation>  (423) 
Nucleic Acids Res. 2018. Jan 4;46(D1):D608-17. PMID:29140435
Nucleic Acids Res. 2018 Jan 4;46(D1):D1074-D1082. PMID:29126136
Nucleic Acids Res., 45:D380-388 (2017).  PMID:27924025
Nucleic Acids Res. 2016 Jan 4;44(D1):D1202-13. PMID:26400175

>  <ROMol>  (423) 
<rdkit.Chem.rdchem.Mol object at 0x7c2905d5c740>

>  <Drug_like>  (423) 
True

$$$$
11beta_17beta-Dihydroxy-4-androsten-3-one
     RDKit          2D

 22 25  0  0  0  0  0  0  0  0999 V2000
    3.7619   -0.8600    0.0000 C   0  0  0  0  0  0  0  0  0  0  0  0
    3.4508   -3.7835    0.0000 C   0  0  0  0  0  0  0  0  0  0  0  0
    2.1508   -3.0335    0.0000 C   0  0  0  0  0  0  0  0  0  0  0  0
    0.8508   -3.7835    0.0000 C   0  0  0  0  0  0  0  0  0  0  0  0
    0.8508   -5.2835    0.0000 C   0  0  0  0  0  0  0  0  0  0  0  0
    2.1508   -6.0335    0.0000 C   0  0  0  0  0  0  0  0  0  0  0  0
    2.1508   -7.5335    0.0000 C   0  0  0  0  0  0  0  0  0  0  0  0
    0.8508   -8.2835    0.0000 C   0  0  0  0  0  0  0  0  0  0  0  0
   -0.4492   -7.5335    0.0000 C   0  0  0  0  0  0  0  0  0  0  0  0
   -1.7492   -8.2835    0.0000 C   0  0  0  0  0  0  0  0  0  0  0  0
   -3.0492   -7.5335    0.0000 C   0  0  0  0  0  0  0  0  0  0  0  0
   -4.3481   -8.2837    0.0000 O   0  0  0  0  0  0  0  0  0  0  0  0
   -3.0492   -6.0335    0.0000 C   0  0  0  0  0  0  0  0  0  0  0  0
   -1.7492   -5.2835    0.0000 C   0  0  0  0  0  0  0  0  0  0  0  0
   -0.4492   -6.0335    0.0000 C   0  0  0  0  0  0  0  0  0  0  0  0
   -0.4492   -3.0935    0.0000 C   0  0  0  0  0  0  0  0  0  0  0  0
    3.4508   -5.2835    0.0000 C   0  0  0  0  0  0  0  0  0  0  0  0
    4.8808   -5.7435    0.0000 C   0  0  0  0  0  0  0  0  0  0  0  0
    5.7608   -4.5335    0.0000 C   0  0  0  0  0  0  0  0  0  0  0  0
    4.8808   -3.3235    0.0000 C   0  0  0  0  0  0  0  0  0  0  0  0
    6.1803   -2.5744    0.0000 O   0  0  0  0  0  0  0  0  0  0  0  0
    0.0099   -1.4717    0.0000 O   0  0  0  0  0  0  0  0  0  0  0  0
  2  1  1  1
  2  3  1  0
  3  4  1  0
  4  5  1  0
  5  6  1  0
  6  7  1  0
  7  8  1  0
  8  9  1  0
  9 10  2  0
 10 11  1  0
 11 12  2  0
 11 13  1  0
 13 14  1  0
 14 15  1  0
  5 15  1  0
  9 15  1  0
 15 16  1  1
  6 17  1  0
  2 17  1  0
 17 18  1  0
 18 19  1  0
 19 20  1  0
  2 20  1  0
 20 21  1  0
  4 22  1  0
M  END
>  <cdk:Title>  (424) 
11beta_17beta-Dihydroxy-4-androsten-3-one

>  <1A2>  (424) 
N

>  <2A6>  (424) 
N

>  <2B6>  (424) 
N

>  <2C8>  (424) 
N

>  <2C9>  (424) 
N

>  <2C19>  (424) 
N

>  <2D6>  (424) 
N

>  <2E1>  (424) 
N

>  <3A4>  (424) 
N

>  <Citation>  (424) 
Nucleic Acids Res. 2018. Jan 4;46(D1):D608-17. PMID:29140435
Nucleic Acids Res. 2018 Jan 4;46(D1):D1074-D1082. PMID:29126136
Nucleic Acids Res., 45:D380-388 (2017).  PMID:27924025
Nucleic Acids Res. 2016 Jan 4;44(D1):D1202-13. PMID:26400175

>  <ROMol>  (424) 
<rdkit.Chem.rdchem.Mol object at 0x7c2905d5c820>

>  <Drug_like>  (424) 
True

$$$$
5-Androstene-3b_16a_17a-triol
     RDKit          2D

 22 25  0  0  0  0  0  0  0  0999 V2000
   -3.2233   -8.8081    0.0000 C   0  0  0  0  0  0  0  0  0  0  0  0
   -3.2233   -7.2881    0.0000 C   0  0  0  0  0  0  0  0  0  0  0  0
   -1.9133   -6.5681    0.0000 C   0  0  0  0  0  0  0  0  0  0  0  0
   -0.6233   -7.2881    0.0000 C   0  0  0  0  0  0  0  0  0  0  0  0
   -0.6233   -8.8081    0.0000 C   0  0  0  0  0  0  0  0  0  0  0  0
   -1.9133   -9.5581    0.0000 C   0  0  0  0  0  0  0  0  0  0  0  0
    0.6767   -9.5581    0.0000 C   0  0  0  0  0  0  0  0  0  0  0  0
    2.0067   -8.8081    0.0000 C   0  0  0  0  0  0  0  0  0  0  0  0
    2.0067   -7.2881    0.0000 C   0  0  0  0  0  0  0  0  0  0  0  0
    3.2767   -6.5681    0.0000 C   0  0  0  0  0  0  0  0  0  0  0  0
    4.7067   -7.0381    0.0000 C   0  0  0  0  0  0  0  0  0  0  0  0
    5.5567   -5.8481    0.0000 C   0  0  0  0  0  0  0  0  0  0  0  0
    4.7067   -4.6381    0.0000 C   0  0  0  0  0  0  0  0  0  0  0  0
    3.2767   -5.0981    0.0000 C   0  0  0  0  0  0  0  0  0  0  0  0
    3.6111   -2.1772    0.0000 C   0  0  0  0  0  0  0  0  0  0  0  0
    2.0067   -4.3381    0.0000 C   0  0  0  0  0  0  0  0  0  0  0  0
    0.6767   -5.0981    0.0000 C   0  0  0  0  0  0  0  0  0  0  0  0
    0.6767   -6.5681    0.0000 C   0  0  0  0  0  0  0  0  0  0  0  0
    6.0143   -3.9032    0.0000 O   0  0  0  0  0  0  0  0  0  0  0  0
    6.6714   -6.8517    0.0000 O   0  0  0  0  0  0  0  0  0  0  0  0
   -0.6185   -4.3481    0.0000 C   0  0  0  0  0  0  0  0  0  0  0  0
   -4.7009   -8.5494    0.0000 O   0  0  0  0  0  0  0  0  0  0  0  0
  1  2  1  0
  2  3  1  0
  3  4  1  0
  4  5  1  0
  5  6  1  0
  1  6  1  0
  5  7  2  0
  7  8  1  0
  8  9  1  0
  9 10  1  0
 10 11  1  0
 11 12  1  0
 12 13  1  0
 13 14  1  0
 10 14  1  0
 14 15  1  1
 14 16  1  0
 16 17  1  0
 17 18  1  0
  9 18  1  0
  4 18  1  0
 13 19  1  0
 12 20  1  0
  4 21  1  1
  1 22  1  0
M  END
>  <cdk:Title>  (425) 
5-Androstene-3b_16a_17a-triol

>  <1A2>  (425) 
N

>  <2A6>  (425) 
N

>  <2B6>  (425) 
N

>  <2C8>  (425) 
N

>  <2C9>  (425) 
N

>  <2C19>  (425) 
N

>  <2D6>  (425) 
N

>  <2E1>  (425) 
N

>  <3A4>  (425) 
N

>  <Citation>  (425) 
Nucleic Acids Res. 2018. Jan 4;46(D1):D608-17. PMID:29140435
Nucleic Acids Res. 2018 Jan 4;46(D1):D1074-D1082. PMID:29126136
Nucleic Acids Res., 45:D380-388 (2017).  PMID:27924025
Nucleic Acids Res. 2016 Jan 4;44(D1):D1202-13. PMID:26400175

>  <ROMol>  (425) 
<rdkit.Chem.rdchem.Mol object at 0x7c2905d5c890>

>  <Drug_like>  (425) 
True

$$$$
Acetylcysteine
     RDKit          2D

 10  9  0  0  0  0  0  0  0  0999 V2000
    1.2990    0.3086    0.0000 S   0  0  0  0  0  0  0  0  0  0  0  0
    2.5981    1.0586    0.0000 C   0  0  0  0  0  0  0  0  0  0  0  0
    3.8971    0.3086    0.0000 C   0  0  0  0  0  0  0  0  0  0  0  0
    5.1962    1.0586    0.0000 N   0  0  0  0  0  0  0  0  0  0  0  0
    6.4952    0.3086    0.0000 C   0  0  0  0  0  0  0  0  0  0  0  0
    6.4952   -1.1914    0.0000 O   0  0  0  0  0  0  0  0  0  0  0  0
    7.7942    1.0586    0.0000 C   0  0  0  0  0  0  0  0  0  0  0  0
    2.9329   -0.8405    0.0000 C   0  0  0  0  0  0  0  0  0  0  0  0
    1.4557   -0.5800    0.0000 O   0  0  0  0  0  0  0  0  0  0  0  0
    3.4460   -2.2500    0.0000 O   0  0  0  0  0  0  0  0  0  0  0  0
  1  2  1  0
  2  3  1  0
  3  4  1  0
  4  5  1  0
  5  6  2  0
  5  7  1  0
  3  8  1  0
  8  9  1  0
  8 10  2  0
M  END
>  <cdk:Title>  (426) 
Acetylcysteine

>  <1A2>  (426) 
N

>  <2A6>  (426) 
N

>  <2B6>  (426) 
N

>  <2C8>  (426) 
N

>  <2C9>  (426) 
N

>  <2C19>  (426) 
N

>  <2D6>  (426) 
N

>  <2E1>  (426) 
N

>  <3A4>  (426) 
N

>  <Citation>  (426) 
Nucleic Acids Res. 2018. Jan 4;46(D1):D608-17. PMID:29140435
Nucleic Acids Res. 2018 Jan 4;46(D1):D1074-D1082. PMID:29126136
Nucleic Acids Res., 45:D380-388 (2017).  PMID:27924025
Nucleic Acids Res. 2016 Jan 4;44(D1):D1202-13. PMID:26400175

>  <ROMol>  (426) 
<rdkit.Chem.rdchem.Mol object at 0x7c2905d5c900>

>  <Drug_like>  (426) 
True

$$$$
Annopentocin a
     RDKit          2D

 43 44  0  0  0  0  0  0  0  0999 V2000
    5.1954    9.5767    0.0000 O   0  0  0  0  0  0  0  0  0  0  0  0
    5.8033   10.9438    0.0000 C   0  0  0  0  0  0  0  0  0  0  0  0
    4.6900   11.9522    0.0000 C   0  0  0  0  0  0  0  0  0  0  0  0
    3.3909   11.2022    0.0000 C   0  0  0  0  0  0  0  0  0  0  0  0
    3.7075    9.7338    0.0000 C   0  0  0  0  0  0  0  0  0  0  0  0
    0.7842    9.4213    0.0000 C   0  0  0  0  0  0  0  0  0  0  0  0
    0.1766    8.0498    0.0000 C   0  0  0  0  0  0  0  0  0  0  0  0
   -2.7468    7.7373    0.0000 C   0  0  0  0  0  0  0  0  0  0  0  0
   -3.3544    6.3659    0.0000 C   0  0  0  0  0  0  0  0  0  0  0  0
   -6.2777    6.0533    0.0000 C   0  0  0  0  0  0  0  0  0  0  0  0
   -7.2743    3.8042    0.0000 C   0  0  0  0  0  0  0  0  0  0  0  0
   -9.7203    3.5426    0.0000 C   0  0  0  0  0  0  0  0  0  0  0  0
  -10.7169    1.2935    0.0000 C   0  0  0  0  0  0  0  0  0  0  0  0
  -13.1629    1.0320    0.0000 C   0  0  0  0  0  0  0  0  0  0  0  0
  -14.1595   -1.2171    0.0000 C   0  0  0  0  0  0  0  0  0  0  0  0
  -16.6055   -1.4787    0.0000 C   0  0  0  0  0  0  0  0  0  0  0  0
  -17.6020   -3.7278    0.0000 C   0  0  0  0  0  0  0  0  0  0  0  0
  -20.0481   -3.9893    0.0000 C   0  0  0  0  0  0  0  0  0  0  0  0
  -21.0446   -6.2384    0.0000 C   0  0  0  0  0  0  0  0  0  0  0  0
  -23.0134   -6.4489    0.0000 C   0  0  0  0  0  0  0  0  0  0  0  0
  -23.6211   -7.8203    0.0000 C   0  0  0  0  0  0  0  0  0  0  0  0
  -25.1126   -7.9798    0.0000 C   0  0  0  0  0  0  0  0  0  0  0  0
   -6.1758    7.5498    0.0000 O   0  0  0  0  0  0  0  0  0  0  0  0
   -3.4564    4.8693    0.0000 O   0  0  0  0  0  0  0  0  0  0  0  0
    0.8862   10.9178    0.0000 O   0  0  0  0  0  0  0  0  0  0  0  0
    7.1019   10.1930    0.0000 C   0  0  0  0  0  0  0  0  0  0  0  0
    8.8173   11.1818    0.0000 C   0  0  0  0  0  0  0  0  0  0  0  0
   10.5313   10.1907    0.0000 C   0  0  0  0  0  0  0  0  0  0  0  0
   12.2467   11.1796    0.0000 C   0  0  0  0  0  0  0  0  0  0  0  0
   13.9608   10.1884    0.0000 C   0  0  0  0  0  0  0  0  0  0  0  0
   15.6762   11.1773    0.0000 C   0  0  0  0  0  0  0  0  0  0  0  0
   16.9747   10.4265    0.0000 C   0  0  0  0  0  0  0  0  0  0  0  0
   18.6901   11.4153    0.0000 C   0  0  0  0  0  0  0  0  0  0  0  0
   20.8197   10.1839    0.0000 C   0  0  0  0  0  0  0  0  0  0  0  0
   22.1192   10.9331    0.0000 C   0  0  0  0  0  0  0  0  0  0  0  0
   22.2769   12.4174    0.0000 C   0  0  0  0  0  0  0  0  0  0  0  0
   23.7444   12.7379    0.0000 O   0  0  0  0  0  0  0  0  0  0  0  0
   24.4875   11.4326    0.0000 C   0  0  0  0  0  0  0  0  0  0  0  0
   23.4894   10.3227    0.0000 C   0  0  0  0  0  0  0  0  0  0  0  0
   25.4894   10.3163    0.0000 C   0  0  0  0  0  0  0  0  0  0  0  0
   21.1599   13.4185    0.0000 O   0  0  0  0  0  0  0  0  0  0  0  0
   19.6550   12.5638    0.0000 O   0  0  0  0  0  0  0  0  0  0  0  0
    9.7822   12.3303    0.0000 O   0  0  0  0  0  0  0  0  0  0  0  0
  1  2  1  0
  2  3  1  0
  3  4  1  0
  4  5  1  0
  1  5  1  0
  5  6  1  0
  6  7  1  0
  7  8  1  0
  8  9  1  0
  9 10  1  0
 10 11  1  0
 11 12  1  0
 12 13  1  0
 13 14  1  0
 14 15  1  0
 15 16  1  0
 16 17  1  0
 17 18  1  0
 18 19  1  0
 19 20  1  0
 20 21  1  0
 21 22  1  0
 10 23  1  0
  9 24  1  0
  6 25  1  0
  2 26  1  0
 26 27  1  0
 27 28  1  0
 28 29  1  0
 29 30  1  0
 30 31  1  0
 31 32  1  0
 32 33  1  0
 33 34  1  0
 34 35  1  0
 35 36  1  0
 36 37  1  0
 37 38  1  0
 38 39  1  0
 35 39  2  0
 38 40  1  0
 36 41  2  0
 33 42  1  0
 27 43  1  0
M  END
>  <cdk:Title>  (427) 
Annopentocin a

>  <1A2>  (427) 
N

>  <2A6>  (427) 
N

>  <2B6>  (427) 
N

>  <2C8>  (427) 
N

>  <2C9>  (427) 
N

>  <2C19>  (427) 
N

>  <2D6>  (427) 
N

>  <2E1>  (427) 
N

>  <3A4>  (427) 
N

>  <Citation>  (427) 
Nucleic Acids Res. 2018. Jan 4;46(D1):D608-17. PMID:29140435
Nucleic Acids Res. 2018 Jan 4;46(D1):D1074-D1082. PMID:29126136
Nucleic Acids Res., 45:D380-388 (2017).  PMID:27924025
Nucleic Acids Res. 2016 Jan 4;44(D1):D1202-13. PMID:26400175

>  <ROMol>  (427) 
<rdkit.Chem.rdchem.Mol object at 0x7c2905d5c970>

>  <Drug_like>  (427) 
True

$$$$
(4S)-4-[(2E)-Oct-2-enoyloxy]-4-(trimethylazaniumyl)butanoate
     RDKit          2D

 20 19  0  0  0  0  0  0  0  0999 V2000
    2.5796   -1.5259    0.0000 C   0  0  0  0  0  0  0  0  0  0  0  0
    1.5896   -3.2406    0.0000 C   0  0  0  0  0  0  0  0  0  0  0  0
    0.0896   -3.2406    0.0000 C   0  0  0  0  0  0  0  0  0  0  0  0
   -0.6604   -4.5396    0.0000 C   0  0  0  0  0  0  0  0  0  0  0  0
   -2.1604   -4.5396    0.0000 O   0  0  0  0  0  0  0  0  0  0  0  0
    0.0896   -5.8387    0.0000 O   0  0  0  0  0  0  0  0  0  0  0  0
    3.0901    1.3695    0.0000 N   0  0  0  0  0  0  0  0  0  0  0  0
    1.9410    2.3336    0.0000 C   0  0  0  0  0  0  0  0  0  0  0  0
    4.4996    0.8564    0.0000 C   0  0  0  0  0  0  0  0  0  0  0  0
    4.5601    3.9156    0.0000 C   0  0  0  0  0  0  0  0  0  0  0  0
    4.5596   -1.5259    0.0000 O   0  0  0  0  0  0  0  0  0  0  0  0
    5.3096   -2.8249    0.0000 C   0  0  0  0  0  0  0  0  0  0  0  0
    6.8096   -2.8249    0.0000 C   0  0  0  0  0  0  0  0  0  0  0  0
    7.5596   -4.1240    0.0000 C   0  0  0  0  0  0  0  0  0  0  0  0
    9.0596   -4.1240    0.0000 C   0  0  0  0  0  0  0  0  0  0  0  0
    9.8096   -5.4230    0.0000 C   0  0  0  0  0  0  0  0  0  0  0  0
   12.2696   -5.4230    0.0000 C   0  0  0  0  0  0  0  0  0  0  0  0
   13.0196   -6.7220    0.0000 C   0  0  0  0  0  0  0  0  0  0  0  0
   14.5196   -6.7220    0.0000 C   0  0  0  0  0  0  0  0  0  0  0  0
    4.5596   -4.1240    0.0000 O   0  0  0  0  0  0  0  0  0  0  0  0
  1  2  1  0
  2  3  1  0
  3  4  1  0
  4  5  2  0
  4  6  1  0
  1  7  1  0
  7  8  1  0
  7  9  1  0
  7 10  1  0
  1 11  1  0
 11 12  1  0
 12 13  1  0
 13 14  2  0
 14 15  1  0
 15 16  1  0
 16 17  1  0
 17 18  1  0
 18 19  1  0
 12 20  2  0
M  CHG  2   6  -1   7   1
M  END
>  <cdk:Title>  (428) 
(4S)-4-[(2E)-Oct-2-enoyloxy]-4-(trimethylazaniumyl)butanoate

>  <1A2>  (428) 
N

>  <2A6>  (428) 
N

>  <2B6>  (428) 
N

>  <2C8>  (428) 
N

>  <2C9>  (428) 
N

>  <2C19>  (428) 
N

>  <2D6>  (428) 
N

>  <2E1>  (428) 
N

>  <3A4>  (428) 
N

>  <Citation>  (428) 
Nucleic Acids Res. 2018. Jan 4;46(D1):D608-17. PMID:29140435
Nucleic Acids Res. 2018 Jan 4;46(D1):D1074-D1082. PMID:29126136
Nucleic Acids Res., 45:D380-388 (2017).  PMID:27924025
Nucleic Acids Res. 2016 Jan 4;44(D1):D1202-13. PMID:26400175

>  <ROMol>  (428) 
<rdkit.Chem.rdchem.Mol object at 0x7c2905d5c9e0>

>  <Drug_like>  (428) 
True

$$$$
2'-Hydroxyacetophenone
     RDKit          2D

 10 10  0  0  0  0  0  0  0  0999 V2000
   -1.3004    1.8756    0.0000 C   0  0  0  0  0  0  0  0  0  0  0  0
   -1.3001    0.3756    0.0000 C   0  0  0  0  0  0  0  0  0  0  0  0
   -0.0010   -0.3742    0.0000 C   0  0  0  0  0  0  0  0  0  0  0  0
   -0.0005   -1.8750    0.0000 C   0  0  0  0  0  0  0  0  0  0  0  0
    1.2990   -2.6258    0.0000 C   0  0  0  0  0  0  0  0  0  0  0  0
    2.5981   -1.8758    0.0000 C   0  0  0  0  0  0  0  0  0  0  0  0
    2.5976   -0.3750    0.0000 C   0  0  0  0  0  0  0  0  0  0  0  0
    1.2981    0.3758    0.0000 C   0  0  0  0  0  0  0  0  0  0  0  0
    1.2983    1.8758    0.0000 O   0  0  0  0  0  0  0  0  0  0  0  0
   -2.5990   -0.3746    0.0000 O   0  0  0  0  0  0  0  0  0  0  0  0
  1  2  1  0
  2  3  1  0
  3  4  2  0
  4  5  1  0
  5  6  2  0
  6  7  1  0
  7  8  2  0
  3  8  1  0
  8  9  1  0
  2 10  2  0
M  END
>  <cdk:Title>  (429) 
2'-Hydroxyacetophenone

>  <1A2>  (429) 
N

>  <2A6>  (429) 
N

>  <2B6>  (429) 
N

>  <2C8>  (429) 
N

>  <2C9>  (429) 
N

>  <2C19>  (429) 
N

>  <2D6>  (429) 
N

>  <2E1>  (429) 
N

>  <3A4>  (429) 
N

>  <Citation>  (429) 
Nucleic Acids Res. 2018. Jan 4;46(D1):D608-17. PMID:29140435
Nucleic Acids Res. 2018 Jan 4;46(D1):D1074-D1082. PMID:29126136
Nucleic Acids Res., 45:D380-388 (2017).  PMID:27924025
Nucleic Acids Res. 2016 Jan 4;44(D1):D1202-13. PMID:26400175

>  <ROMol>  (429) 
<rdkit.Chem.rdchem.Mol object at 0x7c2905d5cb30>

>  <Drug_like>  (429) 
True

$$$$
Tyramine glucuronide
     RDKit          2D

 22 23  0  0  0  0  0  0  0  0999 V2000
    1.9202   -2.0778    0.0000 O   0  0  0  0  0  0  0  0  0  0  0  0
    3.3968   -1.8088    0.0000 C   0  0  0  0  0  0  0  0  0  0  0  0
    3.8980   -0.4057    0.0000 C   0  0  0  0  0  0  0  0  0  0  0  0
    2.9295    0.7474    0.0000 C   0  0  0  0  0  0  0  0  0  0  0  0
    4.2271    1.4999    0.0000 O   0  0  0  0  0  0  0  0  0  0  0  0
    1.4308    0.4757    0.0000 C   0  0  0  0  0  0  0  0  0  0  0  0
    1.4230    1.9757    0.0000 O   0  0  0  0  0  0  0  0  0  0  0  0
    0.9295   -0.9274    0.0000 C   0  0  0  0  0  0  0  0  0  0  0  0
   -0.3757   -0.1881    0.0000 O   0  0  0  0  0  0  0  0  0  0  0  0
   -1.6685   -0.9488    0.0000 C   0  0  0  0  0  0  0  0  0  0  0  0
   -3.0185   -0.1988    0.0000 C   0  0  0  0  0  0  0  0  0  0  0  0
   -4.2885   -0.9488    0.0000 C   0  0  0  0  0  0  0  0  0  0  0  0
   -4.2885   -2.4488    0.0000 C   0  0  0  0  0  0  0  0  0  0  0  0
   -3.0185   -3.1988    0.0000 C   0  0  0  0  0  0  0  0  0  0  0  0
   -1.6685   -2.4488    0.0000 C   0  0  0  0  0  0  0  0  0  0  0  0
   -5.5912   -3.1924    0.0000 C   0  0  0  0  0  0  0  0  0  0  0  0
   -6.8866   -2.4360    0.0000 C   0  0  0  0  0  0  0  0  0  0  0  0
   -8.1893   -3.1796    0.0000 N   0  0  0  0  0  0  0  0  0  0  0  0
    5.2002   -1.1503    0.0000 O   0  0  0  0  0  0  0  0  0  0  0  0
    3.4054   -3.3088    0.0000 C   0  0  0  0  0  0  0  0  0  0  0  0
    4.7087   -4.0513    0.0000 O   0  0  0  0  0  0  0  0  0  0  0  0
    2.1107   -4.0662    0.0000 O   0  0  0  0  0  0  0  0  0  0  0  0
  1  2  1  0
  2  3  1  0
  3  4  1  0
  4  5  1  0
  4  6  1  0
  6  7  1  0
  6  8  1  0
  1  8  1  0
  8  9  1  0
  9 10  1  0
 10 11  2  0
 11 12  1  0
 12 13  2  0
 13 14  1  0
 14 15  2  0
 10 15  1  0
 13 16  1  0
 16 17  1  0
 17 18  1  0
  3 19  1  0
  2 20  1  0
 20 21  1  0
 20 22  2  0
M  END
>  <cdk:Title>  (430) 
Tyramine glucuronide

>  <1A2>  (430) 
N

>  <2A6>  (430) 
N

>  <2B6>  (430) 
N

>  <2C8>  (430) 
N

>  <2C9>  (430) 
N

>  <2C19>  (430) 
N

>  <2D6>  (430) 
N

>  <2E1>  (430) 
N

>  <3A4>  (430) 
N

>  <Citation>  (430) 
Nucleic Acids Res. 2018. Jan 4;46(D1):D608-17. PMID:29140435
Nucleic Acids Res. 2018 Jan 4;46(D1):D1074-D1082. PMID:29126136
Nucleic Acids Res., 45:D380-388 (2017).  PMID:27924025
Nucleic Acids Res. 2016 Jan 4;44(D1):D1202-13. PMID:26400175

>  <ROMol>  (430) 
<rdkit.Chem.rdchem.Mol object at 0x7c2905d5cba0>

>  <Drug_like>  (430) 
True

$$$$
6-Phosphogluconic acid
     RDKit          2D

 17 16  0  0  0  0  0  0  0  0999 V2000
   13.8281    0.7382    0.0000 P   0  0  0  0  0  0  0  0  0  0  0  0
   12.3281    0.7382    0.0000 O   0  0  0  0  0  0  0  0  0  0  0  0
   11.5781    2.0372    0.0000 C   0  0  0  0  0  0  0  0  0  0  0  0
    9.5981    2.0372    0.0000 C   0  0  0  0  0  0  0  0  0  0  0  0
    8.6081    3.7519    0.0000 C   0  0  0  0  0  0  0  0  0  0  0  0
    8.3477    5.2291    0.0000 O   0  0  0  0  0  0  0  0  0  0  0  0
    6.6281    3.7519    0.0000 C   0  0  0  0  0  0  0  0  0  0  0  0
    6.8886    2.2747    0.0000 O   0  0  0  0  0  0  0  0  0  0  0  0
    5.8781    5.0510    0.0000 C   0  0  0  0  0  0  0  0  0  0  0  0
    5.6177    6.5282    0.0000 O   0  0  0  0  0  0  0  0  0  0  0  0
    4.3781    5.0510    0.0000 C   0  0  0  0  0  0  0  0  0  0  0  0
    3.6281    6.3500    0.0000 O   0  0  0  0  0  0  0  0  0  0  0  0
    3.6281    3.7519    0.0000 O   0  0  0  0  0  0  0  0  0  0  0  0
    9.8586    0.5600    0.0000 O   0  0  0  0  0  0  0  0  0  0  0  0
   14.5781    2.0372    0.0000 O   0  0  0  0  0  0  0  0  0  0  0  0
   13.5677   -0.7390    0.0000 O   0  0  0  0  0  0  0  0  0  0  0  0
   15.2377    0.2251    0.0000 O   0  0  0  0  0  0  0  0  0  0  0  0
  1  2  1  0
  2  3  1  0
  3  4  1  0
  4  5  1  0
  5  6  1  0
  5  7  1  0
  7  8  1  0
  7  9  1  0
  9 10  1  0
  9 11  1  0
 11 12  1  0
 11 13  2  0
  4 14  1  0
  1 15  1  0
  1 16  1  0
  1 17  2  0
M  END
>  <cdk:Title>  (431) 
6-Phosphogluconic acid

>  <1A2>  (431) 
N

>  <2A6>  (431) 
N

>  <2B6>  (431) 
N

>  <2C8>  (431) 
N

>  <2C9>  (431) 
N

>  <2C19>  (431) 
N

>  <2D6>  (431) 
N

>  <2E1>  (431) 
N

>  <3A4>  (431) 
N

>  <Citation>  (431) 
Nucleic Acids Res. 2018. Jan 4;46(D1):D608-17. PMID:29140435
Nucleic Acids Res. 2018 Jan 4;46(D1):D1074-D1082. PMID:29126136
Nucleic Acids Res., 45:D380-388 (2017).  PMID:27924025
Nucleic Acids Res. 2016 Jan 4;44(D1):D1202-13. PMID:26400175

>  <ROMol>  (431) 
<rdkit.Chem.rdchem.Mol object at 0x7c2905d5cc10>

>  <Drug_like>  (431) 
True

$$$$
2_4_6-Tribromophenol
     RDKit          2D

 10 10  0  0  0  0  0  0  0  0999 V2000
   -2.5989    1.5002    0.0000 O   0  0  0  0  0  0  0  0  0  0  0  0
   -1.3000    0.7500    0.0000 C   0  0  0  0  0  0  0  0  0  0  0  0
    0.0000    1.5000    0.0000 C   0  0  0  0  0  0  0  0  0  0  0  0
    0.0000    3.0000    0.0000 Br  0  0  0  0  0  0  0  0  0  0  0  0
    1.3000    0.7500    0.0000 C   0  0  0  0  0  0  0  0  0  0  0  0
    1.3000   -0.7500    0.0000 C   0  0  0  0  0  0  0  0  0  0  0  0
    2.5989   -1.5002    0.0000 Br  0  0  0  0  0  0  0  0  0  0  0  0
    0.0000   -1.5000    0.0000 C   0  0  0  0  0  0  0  0  0  0  0  0
   -1.3000   -0.7500    0.0000 C   0  0  0  0  0  0  0  0  0  0  0  0
   -2.5989   -1.5002    0.0000 Br  0  0  0  0  0  0  0  0  0  0  0  0
  1  2  1  0
  2  3  2  0
  3  4  1  0
  3  5  1  0
  5  6  2  0
  6  7  1  0
  6  8  1  0
  8  9  2  0
  2  9  1  0
  9 10  1  0
M  END
>  <cdk:Title>  (432) 
2_4_6-Tribromophenol

>  <1A2>  (432) 
N

>  <2A6>  (432) 
N

>  <2B6>  (432) 
N

>  <2C8>  (432) 
N

>  <2C9>  (432) 
N

>  <2C19>  (432) 
N

>  <2D6>  (432) 
N

>  <2E1>  (432) 
N

>  <3A4>  (432) 
N

>  <Citation>  (432) 
Nucleic Acids Res. 2018. Jan 4;46(D1):D608-17. PMID:29140435
Nucleic Acids Res. 2018 Jan 4;46(D1):D1074-D1082. PMID:29126136
Nucleic Acids Res., 45:D380-388 (2017).  PMID:27924025
Nucleic Acids Res. 2016 Jan 4;44(D1):D1202-13. PMID:26400175

>  <ROMol>  (432) 
<rdkit.Chem.rdchem.Mol object at 0x7c2905d5cc80>

>  <Drug_like>  (432) 
True

$$$$
trans-Cinnamoyl-??-D-glucoside
     RDKit          2D

 22 23  0  0  0  0  0  0  0  0999 V2000
    2.9310    0.2059    0.0000 C   0  0  0  0  0  0  0  0  0  0  0  0
    3.6819    1.5054    0.0000 C   0  0  0  0  0  0  0  0  0  0  0  0
    2.9319    2.8044    0.0000 C   0  0  0  0  0  0  0  0  0  0  0  0
    1.4310    2.8039    0.0000 C   0  0  0  0  0  0  0  0  0  0  0  0
    0.6802    1.5044    0.0000 C   0  0  0  0  0  0  0  0  0  0  0  0
    1.4302    0.2054    0.0000 C   0  0  0  0  0  0  0  0  0  0  0  0
    0.6810    4.1030    0.0000 C   0  0  0  0  0  0  0  0  0  0  0  0
   -0.8190    4.1030    0.0000 C   0  0  0  0  0  0  0  0  0  0  0  0
   -1.5690    5.4020    0.0000 C   0  0  0  0  0  0  0  0  0  0  0  0
   -0.8190    6.7011    0.0000 O   0  0  0  0  0  0  0  0  0  0  0  0
   -3.0690    5.4020    0.0000 O   0  0  0  0  0  0  0  0  0  0  0  0
   -3.8190    6.7011    0.0000 C   0  0  0  0  0  0  0  0  0  0  0  0
   -4.9626    5.7459    0.0000 C   0  0  0  0  0  0  0  0  0  0  0  0
   -6.3920    6.2719    0.0000 C   0  0  0  0  0  0  0  0  0  0  0  0
   -6.6420    7.7568    0.0000 C   0  0  0  0  0  0  0  0  0  0  0  0
   -5.4984    8.7120    0.0000 C   0  0  0  0  0  0  0  0  0  0  0  0
   -4.7452   10.0091    0.0000 C   0  0  0  0  0  0  0  0  0  0  0  0
   -5.4919   11.3100    0.0000 O   0  0  0  0  0  0  0  0  0  0  0  0
   -4.0895    8.1950    0.0000 O   0  0  0  0  0  0  0  0  0  0  0  0
   -7.3867    9.0590    0.0000 O   0  0  0  0  0  0  0  0  0  0  0  0
   -7.8920    6.2814    0.0000 O   0  0  0  0  0  0  0  0  0  0  0  0
   -5.7166    4.4492    0.0000 O   0  0  0  0  0  0  0  0  0  0  0  0
  1  2  2  0
  2  3  1  0
  3  4  2  0
  4  5  1  0
  5  6  2  0
  1  6  1  0
  4  7  1  0
  7  8  2  0
  8  9  1  0
  9 10  2  0
  9 11  1  0
 11 12  1  0
 12 13  1  0
 13 14  1  0
 14 15  1  0
 15 16  1  0
 16 17  1  0
 17 18  1  0
 16 19  1  0
 12 19  1  0
 15 20  1  0
 14 21  1  0
 13 22  1  0
M  END
>  <cdk:Title>  (433) 
trans-Cinnamoyl-??-D-glucoside

>  <1A2>  (433) 
N

>  <2A6>  (433) 
N

>  <2B6>  (433) 
N

>  <2C8>  (433) 
N

>  <2C9>  (433) 
N

>  <2C19>  (433) 
N

>  <2D6>  (433) 
N

>  <2E1>  (433) 
N

>  <3A4>  (433) 
N

>  <Citation>  (433) 
Nucleic Acids Res. 2018. Jan 4;46(D1):D608-17. PMID:29140435
Nucleic Acids Res. 2018 Jan 4;46(D1):D1074-D1082. PMID:29126136
Nucleic Acids Res., 45:D380-388 (2017).  PMID:27924025
Nucleic Acids Res. 2016 Jan 4;44(D1):D1202-13. PMID:26400175

>  <ROMol>  (433) 
<rdkit.Chem.rdchem.Mol object at 0x7c2905d5cd60>

>  <Drug_like>  (433) 
True

$$$$
Questiomycin a
     RDKit          2D

 16 18  0  0  0  0  0  0  0  0999 V2000
    3.9000    0.7500    0.0000 C   0  0  0  0  0  0  0  0  0  0  0  0
    3.9000   -0.7500    0.0000 C   0  0  0  0  0  0  0  0  0  0  0  0
    2.6000   -1.5000    0.0000 C   0  0  0  0  0  0  0  0  0  0  0  0
    1.3000   -0.7500    0.0000 C   0  0  0  0  0  0  0  0  0  0  0  0
    1.3000    0.7500    0.0000 C   0  0  0  0  0  0  0  0  0  0  0  0
    2.6000    1.5000    0.0000 C   0  0  0  0  0  0  0  0  0  0  0  0
    0.0000    1.5000    0.0000 N   0  0  0  0  0  0  0  0  0  0  0  0
   -1.3000    0.7500    0.0000 C   0  0  0  0  0  0  0  0  0  0  0  0
   -2.6000    1.5000    0.0000 C   0  0  0  0  0  0  0  0  0  0  0  0
   -3.9000    0.7500    0.0000 C   0  0  0  0  0  0  0  0  0  0  0  0
   -3.9000   -0.7500    0.0000 C   0  0  0  0  0  0  0  0  0  0  0  0
   -2.6000   -1.5000    0.0000 C   0  0  0  0  0  0  0  0  0  0  0  0
   -1.3000   -0.7500    0.0000 C   0  0  0  0  0  0  0  0  0  0  0  0
    0.0000   -1.5000    0.0000 O   0  0  0  0  0  0  0  0  0  0  0  0
   -5.1989   -1.5002    0.0000 O   0  0  0  0  0  0  0  0  0  0  0  0
   -5.1989    1.5002    0.0000 N   0  0  0  0  0  0  0  0  0  0  0  0
  1  2  2  0
  2  3  1  0
  3  4  2  0
  4  5  1  0
  5  6  2  0
  1  6  1  0
  5  7  1  0
  7  8  2  0
  8  9  1  0
  9 10  2  0
 10 11  1  0
 11 12  1  0
 12 13  2  0
  8 13  1  0
 13 14  1  0
  4 14  1  0
 11 15  2  0
 10 16  1  0
M  END
>  <cdk:Title>  (434) 
Questiomycin a

>  <1A2>  (434) 
N

>  <2A6>  (434) 
N

>  <2B6>  (434) 
N

>  <2C8>  (434) 
N

>  <2C9>  (434) 
N

>  <2C19>  (434) 
N

>  <2D6>  (434) 
N

>  <2E1>  (434) 
N

>  <3A4>  (434) 
N

>  <Citation>  (434) 
Nucleic Acids Res. 2018. Jan 4;46(D1):D608-17. PMID:29140435
Nucleic Acids Res. 2018 Jan 4;46(D1):D1074-D1082. PMID:29126136
Nucleic Acids Res., 45:D380-388 (2017).  PMID:27924025
Nucleic Acids Res. 2016 Jan 4;44(D1):D1202-13. PMID:26400175

>  <ROMol>  (434) 
<rdkit.Chem.rdchem.Mol object at 0x7c2905d5cdd0>

>  <Drug_like>  (434) 
True

$$$$
(1S_2S_4S_8R)-9-(beta-D-Glucopyranosyloxy)-p-menthane-1_2_8-triol
     RDKit          2D

 25 26  0  0  0  0  0  0  0  0999 V2000
   -7.7560   -3.4280    0.0000 C   0  0  0  0  0  0  0  0  0  0  0  0
   -4.9934   -2.4222    0.0000 C   0  0  0  0  0  0  0  0  0  0  0  0
   -3.8442   -1.4569    0.0000 C   0  0  0  0  0  0  0  0  0  0  0  0
   -2.4346   -1.9696    0.0000 C   0  0  0  0  0  0  0  0  0  0  0  0
   -2.1741   -3.4477    0.0000 C   0  0  0  0  0  0  0  0  0  0  0  0
   -3.3233   -4.4130    0.0000 C   0  0  0  0  0  0  0  0  0  0  0  0
   -4.7330   -3.9003    0.0000 C   0  0  0  0  0  0  0  0  0  0  0  0
   -4.9933   -5.3775    0.0000 O   0  0  0  0  0  0  0  0  0  0  0  0
    0.7211   -2.9368    0.0000 C   0  0  0  0  0  0  0  0  0  0  0  0
    0.7208    0.0032    0.0000 C   0  0  0  0  0  0  0  0  0  0  0  0
    1.6854   -4.0858    0.0000 C   0  0  0  0  0  0  0  0  0  0  0  0
    1.1726   -5.4954    0.0000 O   0  0  0  0  0  0  0  0  0  0  0  0
    2.4454   -7.0120    0.0000 C   0  0  0  0  0  0  0  0  0  0  0  0
    1.1569   -7.7601    0.0000 C   0  0  0  0  0  0  0  0  0  0  0  0
    1.1624   -9.2833    0.0000 C   0  0  0  0  0  0  0  0  0  0  0  0
    2.4723  -10.0259    0.0000 C   0  0  0  0  0  0  0  0  0  0  0  0
    3.7609   -9.2778    0.0000 C   0  0  0  0  0  0  0  0  0  0  0  0
    5.2374   -9.0135    0.0000 C   0  0  0  0  0  0  0  0  0  0  0  0
    6.2046  -10.1600    0.0000 O   0  0  0  0  0  0  0  0  0  0  0  0
    3.7568   -7.7770    0.0000 O   0  0  0  0  0  0  0  0  0  0  0  0
    3.4413  -11.1709    0.0000 O   0  0  0  0  0  0  0  0  0  0  0  0
    0.6584  -10.6961    0.0000 O   0  0  0  0  0  0  0  0  0  0  0  0
   -0.3195   -8.0253    0.0000 O   0  0  0  0  0  0  0  0  0  0  0  0
    2.0201   -2.1867    0.0000 O   0  0  0  0  0  0  0  0  0  0  0  0
   -5.7439   -1.1234    0.0000 O   0  0  0  0  0  0  0  0  0  0  0  0
  2  1  1  1
  2  3  1  0
  3  4  1  0
  4  5  1  0
  5  6  1  0
  6  7  1  0
  2  7  1  0
  7  8  1  0
  5  9  1  0
  9 10  1  1
  9 11  1  0
 11 12  1  0
 12 13  1  0
 13 14  1  0
 14 15  1  0
 15 16  1  0
 16 17  1  0
 17 18  1  0
 18 19  1  0
 17 20  1  0
 13 20  1  0
 16 21  1  0
 15 22  1  0
 14 23  1  0
  9 24  1  0
  2 25  1  0
M  END
>  <cdk:Title>  (435) 
(1S_2S_4S_8R)-9-(beta-D-Glucopyranosyloxy)-p-menthane-1_2_8-triol

>  <1A2>  (435) 
N

>  <2A6>  (435) 
N

>  <2B6>  (435) 
N

>  <2C8>  (435) 
N

>  <2C9>  (435) 
N

>  <2C19>  (435) 
N

>  <2D6>  (435) 
N

>  <2E1>  (435) 
N

>  <3A4>  (435) 
N

>  <Citation>  (435) 
Nucleic Acids Res. 2018. Jan 4;46(D1):D608-17. PMID:29140435
Nucleic Acids Res. 2018 Jan 4;46(D1):D1074-D1082. PMID:29126136
Nucleic Acids Res., 45:D380-388 (2017).  PMID:27924025
Nucleic Acids Res. 2016 Jan 4;44(D1):D1202-13. PMID:26400175

>  <ROMol>  (435) 
<rdkit.Chem.rdchem.Mol object at 0x7c2905d5ce40>

>  <Drug_like>  (435) 
True

$$$$
Prostaglandin e3
     RDKit          2D

 25 25  0  0  0  0  0  0  0  0999 V2000
    8.0603  -17.4655    0.0000 O   0  0  0  0  0  0  0  0  0  0  0  0
    8.1759  -15.9699    0.0000 C   0  0  0  0  0  0  0  0  0  0  0  0
    8.7960  -14.6041    0.0000 C   0  0  0  0  0  0  0  0  0  0  0  0
   10.2889  -14.4582    0.0000 C   0  0  0  0  0  0  0  0  0  0  0  0
   10.9091  -13.0924    0.0000 C   0  0  0  0  0  0  0  0  0  0  0  0
   10.0363  -11.8725    0.0000 C   0  0  0  0  0  0  0  0  0  0  0  0
    8.5434  -12.0183    0.0000 C   0  0  0  0  0  0  0  0  0  0  0  0
    6.6830  -16.1158    0.0000 C   0  0  0  0  0  0  0  0  0  0  0  0
    6.0629  -17.4816    0.0000 C   0  0  0  0  0  0  0  0  0  0  0  0
    4.0923  -17.6741    0.0000 C   0  0  0  0  0  0  0  0  0  0  0  0
    4.3943  -19.1294    0.0000 C   0  0  0  0  0  0  0  0  0  0  0  0
    5.0012  -20.5012    0.0000 O   0  0  0  0  0  0  0  0  0  0  0  0
    3.0875  -19.8819    0.0000 C   0  0  0  0  0  0  0  0  0  0  0  0
    1.9687  -18.8642    0.0000 C   0  0  0  0  0  0  0  0  0  0  0  0
    0.4983  -19.1607    0.0000 O   0  0  0  0  0  0  0  0  0  0  0  0
    2.6026  -17.4989    0.0000 C   0  0  0  0  0  0  0  0  0  0  0  0
    3.7406  -14.7881    0.0000 C   0  0  0  0  0  0  0  0  0  0  0  0
    2.5428  -13.2115    0.0000 C   0  0  0  0  0  0  0  0  0  0  0  0
    1.0547  -13.4002    0.0000 C   0  0  0  0  0  0  0  0  0  0  0  0
    0.4741  -14.7832    0.0000 C   0  0  0  0  0  0  0  0  0  0  0  0
   -1.0140  -14.9719    0.0000 C   0  0  0  0  0  0  0  0  0  0  0  0
   -1.9214  -13.7775    0.0000 C   0  0  0  0  0  0  0  0  0  0  0  0
   -3.4095  -13.9662    0.0000 C   0  0  0  0  0  0  0  0  0  0  0  0
   -4.3170  -12.7718    0.0000 O   0  0  0  0  0  0  0  0  0  0  0  0
   -3.9902  -15.3493    0.0000 O   0  0  0  0  0  0  0  0  0  0  0  0
  1  2  1  0
  2  3  1  0
  3  4  1  0
  4  5  2  0
  5  6  1  0
  6  7  1  0
  2  8  1  0
  8  9  2  0
  9 10  1  0
 10 11  1  0
 11 12  1  0
 11 13  1  0
 13 14  1  0
 14 15  2  0
 14 16  1  0
 10 16  1  0
 16 17  1  0
 17 18  1  0
 18 19  2  0
 19 20  1  0
 20 21  1  0
 21 22  1  0
 22 23  1  0
 23 24  1  0
 23 25  2  0
M  END
>  <cdk:Title>  (436) 
Prostaglandin e3

>  <1A2>  (436) 
N

>  <2A6>  (436) 
N

>  <2B6>  (436) 
N

>  <2C8>  (436) 
N

>  <2C9>  (436) 
N

>  <2C19>  (436) 
N

>  <2D6>  (436) 
N

>  <2E1>  (436) 
N

>  <3A4>  (436) 
N

>  <Citation>  (436) 
Nucleic Acids Res. 2018. Jan 4;46(D1):D608-17. PMID:29140435
Nucleic Acids Res. 2018 Jan 4;46(D1):D1074-D1082. PMID:29126136
Nucleic Acids Res., 45:D380-388 (2017).  PMID:27924025
Nucleic Acids Res. 2016 Jan 4;44(D1):D1202-13. PMID:26400175

>  <ROMol>  (436) 
<rdkit.Chem.rdchem.Mol object at 0x7c2905d5ceb0>

>  <Drug_like>  (436) 
True

$$$$
enol-3-Ethyl-1_2-cyclopentanedione
     RDKit          2D

  9  9  0  0  0  0  0  0  0  0999 V2000
    0.4668   -2.9600    0.0000 C   0  0  0  0  0  0  0  0  0  0  0  0
    1.8946   -2.5000    0.0000 C   0  0  0  0  0  0  0  0  0  0  0  0
    2.2101   -1.0336    0.0000 C   0  0  0  0  0  0  0  0  0  0  0  0
    3.5859   -0.4307    0.0000 C   0  0  0  0  0  0  0  0  0  0  0  0
    3.4201    1.0622    0.0000 C   0  0  0  0  0  0  0  0  0  0  0  0
    1.9603    1.3738    0.0000 C   0  0  0  0  0  0  0  0  0  0  0  0
    1.2103    0.0748    0.0000 C   0  0  0  0  0  0  0  0  0  0  0  0
   -0.2814   -0.0826    0.0000 O   0  0  0  0  0  0  0  0  0  0  0  0
    1.3508    2.7444    0.0000 O   0  0  0  0  0  0  0  0  0  0  0  0
  1  2  1  0
  2  3  1  0
  3  4  1  0
  4  5  1  0
  5  6  1  0
  6  7  1  0
  3  7  2  0
  7  8  1  0
  6  9  2  0
M  END
>  <cdk:Title>  (437) 
enol-3-Ethyl-1_2-cyclopentanedione

>  <1A2>  (437) 
N

>  <2A6>  (437) 
N

>  <2B6>  (437) 
N

>  <2C8>  (437) 
N

>  <2C9>  (437) 
N

>  <2C19>  (437) 
N

>  <2D6>  (437) 
N

>  <2E1>  (437) 
N

>  <3A4>  (437) 
N

>  <Citation>  (437) 
Nucleic Acids Res. 2018. Jan 4;46(D1):D608-17. PMID:29140435
Nucleic Acids Res. 2018 Jan 4;46(D1):D1074-D1082. PMID:29126136
Nucleic Acids Res., 45:D380-388 (2017).  PMID:27924025
Nucleic Acids Res. 2016 Jan 4;44(D1):D1202-13. PMID:26400175

>  <ROMol>  (437) 
<rdkit.Chem.rdchem.Mol object at 0x7c2905d5cf20>

>  <Drug_like>  (437) 
True

$$$$
3-Keto-??-D-galactose
     RDKit          2D

 12 12  0  0  0  0  0  0  0  0999 V2000
   -1.3100    1.0200    0.0000 C   0  0  0  0  0  0  0  0  0  0  0  0
   -1.3100   -0.4700    0.0000 C   0  0  0  0  0  0  0  0  0  0  0  0
   -0.0100   -1.2300    0.0000 C   0  0  0  0  0  0  0  0  0  0  0  0
    1.3100   -0.4700    0.0000 C   0  0  0  0  0  0  0  0  0  0  0  0
    1.3100    1.0200    0.0000 C   0  0  0  0  0  0  0  0  0  0  0  0
   -0.0100    1.7700    0.0000 O   0  0  0  0  0  0  0  0  0  0  0  0
    2.7878    0.7629    0.0000 O   0  0  0  0  0  0  0  0  0  0  0  0
    1.8219   -1.8799    0.0000 O   0  0  0  0  0  0  0  0  0  0  0  0
   -0.0150   -2.7300    0.0000 O   0  0  0  0  0  0  0  0  0  0  0  0
   -2.7867   -0.2069    0.0000 O   0  0  0  0  0  0  0  0  0  0  0  0
   -1.8227    2.4296    0.0000 C   0  0  0  0  0  0  0  0  0  0  0  0
   -3.2999    2.6904    0.0000 O   0  0  0  0  0  0  0  0  0  0  0  0
  1  2  1  0
  2  3  1  0
  3  4  1  0
  4  5  1  0
  5  6  1  0
  1  6  1  0
  5  7  1  0
  4  8  1  0
  3  9  2  0
  2 10  1  0
  1 11  1  0
 11 12  1  0
M  END
>  <cdk:Title>  (438) 
3-Keto-??-D-galactose

>  <1A2>  (438) 
N

>  <2A6>  (438) 
N

>  <2B6>  (438) 
N

>  <2C8>  (438) 
N

>  <2C9>  (438) 
N

>  <2C19>  (438) 
N

>  <2D6>  (438) 
N

>  <2E1>  (438) 
N

>  <3A4>  (438) 
N

>  <Citation>  (438) 
Nucleic Acids Res. 2018. Jan 4;46(D1):D608-17. PMID:29140435
Nucleic Acids Res. 2018 Jan 4;46(D1):D1074-D1082. PMID:29126136
Nucleic Acids Res., 45:D380-388 (2017).  PMID:27924025
Nucleic Acids Res. 2016 Jan 4;44(D1):D1202-13. PMID:26400175

>  <ROMol>  (438) 
<rdkit.Chem.rdchem.Mol object at 0x7c2905d5d000>

>  <Drug_like>  (438) 
True

$$$$
Methionyl butyrate
     RDKit          2D

 11 10  0  0  0  0  0  0  0  0999 V2000
    4.1827    2.4360    0.0000 C   0  0  0  0  0  0  0  0  0  0  0  0
    5.4817    1.6860    0.0000 C   0  0  0  0  0  0  0  0  0  0  0  0
    5.4817    0.1860    0.0000 C   0  0  0  0  0  0  0  0  0  0  0  0
    6.7808   -0.5640    0.0000 C   0  0  0  0  0  0  0  0  0  0  0  0
    8.0798    0.1860    0.0000 O   0  0  0  0  0  0  0  0  0  0  0  0
    6.7808   -2.0640    0.0000 O   0  0  0  0  0  0  0  0  0  0  0  0
    8.0798   -2.8140    0.0000 C   0  0  0  0  0  0  0  0  0  0  0  0
    8.0798   -4.3140    0.0000 C   0  0  0  0  0  0  0  0  0  0  0  0
    9.3789   -5.0640    0.0000 C   0  0  0  0  0  0  0  0  0  0  0  0
   10.6779   -4.3140    0.0000 S   0  0  0  0  0  0  0  0  0  0  0  0
   11.9769   -5.0640    0.0000 C   0  0  0  0  0  0  0  0  0  0  0  0
  1  2  1  0
  2  3  1  0
  3  4  1  0
  4  5  2  0
  4  6  1  0
  6  7  1  0
  7  8  1  0
  8  9  1  0
  9 10  1  0
 10 11  1  0
M  END
>  <cdk:Title>  (439) 
Methionyl butyrate

>  <1A2>  (439) 
N

>  <2A6>  (439) 
N

>  <2B6>  (439) 
N

>  <2C8>  (439) 
N

>  <2C9>  (439) 
N

>  <2C19>  (439) 
N

>  <2D6>  (439) 
N

>  <2E1>  (439) 
N

>  <3A4>  (439) 
N

>  <Citation>  (439) 
Nucleic Acids Res. 2018. Jan 4;46(D1):D608-17. PMID:29140435
Nucleic Acids Res. 2018 Jan 4;46(D1):D1074-D1082. PMID:29126136
Nucleic Acids Res., 45:D380-388 (2017).  PMID:27924025
Nucleic Acids Res. 2016 Jan 4;44(D1):D1202-13. PMID:26400175

>  <ROMol>  (439) 
<rdkit.Chem.rdchem.Mol object at 0x7c2905d5d070>

>  <Drug_like>  (439) 
True

$$$$
OXYCINCHOPHEN
     RDKit          2D

 20 22  0  0  0  0  0  0  0  0999 V2000
    6.4968   -3.0006    0.0000 C   0  0  0  0  0  0  0  0  0  0  0  0
    6.4975   -1.4998    0.0000 C   0  0  0  0  0  0  0  0  0  0  0  0
    5.1986   -0.7496    0.0000 C   0  0  0  0  0  0  0  0  0  0  0  0
    3.8989   -1.5002    0.0000 C   0  0  0  0  0  0  0  0  0  0  0  0
    3.8982   -3.0010    0.0000 C   0  0  0  0  0  0  0  0  0  0  0  0
    5.1971   -3.7512    0.0000 C   0  0  0  0  0  0  0  0  0  0  0  0
    2.6000   -0.7500    0.0000 C   0  0  0  0  0  0  0  0  0  0  0  0
    2.6000    0.7500    0.0000 C   0  0  0  0  0  0  0  0  0  0  0  0
    1.3000    1.5000    0.0000 C   0  0  0  0  0  0  0  0  0  0  0  0
   -0.0000    0.7500    0.0000 C   0  0  0  0  0  0  0  0  0  0  0  0
   -1.3000    1.5000    0.0000 C   0  0  0  0  0  0  0  0  0  0  0  0
   -2.6000    0.7500    0.0000 C   0  0  0  0  0  0  0  0  0  0  0  0
   -2.6000   -0.7500    0.0000 C   0  0  0  0  0  0  0  0  0  0  0  0
   -1.3000   -1.5000    0.0000 C   0  0  0  0  0  0  0  0  0  0  0  0
   -0.0000   -0.7500    0.0000 C   0  0  0  0  0  0  0  0  0  0  0  0
    1.3000   -1.5000    0.0000 N   0  0  0  0  0  0  0  0  0  0  0  0
    1.3000    3.0000    0.0000 C   0  0  0  0  0  0  0  0  0  0  0  0
    2.5990    3.7500    0.0000 O   0  0  0  0  0  0  0  0  0  0  0  0
    0.0010    3.7500    0.0000 O   0  0  0  0  0  0  0  0  0  0  0  0
    3.8989    1.5002    0.0000 O   0  0  0  0  0  0  0  0  0  0  0  0
  1  2  2  0
  2  3  1  0
  3  4  2  0
  4  5  1  0
  5  6  2  0
  1  6  1  0
  4  7  1  0
  7  8  2  0
  8  9  1  0
  9 10  2  0
 10 11  1  0
 11 12  2  0
 12 13  1  0
 13 14  2  0
 14 15  1  0
 10 15  1  0
 15 16  2  0
  7 16  1  0
  9 17  1  0
 17 18  2  0
 17 19  1  0
  8 20  1  0
M  END
>  <cdk:Title>  (440) 
OXYCINCHOPHEN

>  <1A2>  (440) 
N

>  <2A6>  (440) 
N

>  <2B6>  (440) 
N

>  <2C8>  (440) 
N

>  <2C9>  (440) 
N

>  <2C19>  (440) 
N

>  <2D6>  (440) 
N

>  <2E1>  (440) 
N

>  <3A4>  (440) 
N

>  <Citation>  (440) 
Nucleic Acids Res. 2018. Jan 4;46(D1):D608-17. PMID:29140435
Nucleic Acids Res. 2018 Jan 4;46(D1):D1074-D1082. PMID:29126136
Nucleic Acids Res., 45:D380-388 (2017).  PMID:27924025
Nucleic Acids Res. 2016 Jan 4;44(D1):D1202-13. PMID:26400175

>  <ROMol>  (440) 
<rdkit.Chem.rdchem.Mol object at 0x7c2905d5d150>

>  <Drug_like>  (440) 
True

$$$$
Glutarylglycine
     RDKit          2D

 13 12  0  0  0  0  0  0  0  0999 V2000
   11.6913   -0.7500    0.0000 C   0  0  0  0  0  0  0  0  0  0  0  0
   10.3923   -0.0000    0.0000 C   0  0  0  0  0  0  0  0  0  0  0  0
    9.0933   -0.7500    0.0000 N   0  0  0  0  0  0  0  0  0  0  0  0
    7.7942   -0.0000    0.0000 C   0  0  0  0  0  0  0  0  0  0  0  0
    6.4952   -0.7500    0.0000 C   0  0  0  0  0  0  0  0  0  0  0  0
    4.7805    0.2400    0.0000 C   0  0  0  0  0  0  0  0  0  0  0  0
    3.4814   -0.5100    0.0000 C   0  0  0  0  0  0  0  0  0  0  0  0
    2.1824    0.2400    0.0000 C   0  0  0  0  0  0  0  0  0  0  0  0
    2.1824    1.7400    0.0000 O   0  0  0  0  0  0  0  0  0  0  0  0
    0.8833   -0.5100    0.0000 O   0  0  0  0  0  0  0  0  0  0  0  0
    7.7942    1.5000    0.0000 O   0  0  0  0  0  0  0  0  0  0  0  0
   11.6913   -2.2500    0.0000 O   0  0  0  0  0  0  0  0  0  0  0  0
   12.9904   -0.0000    0.0000 O   0  0  0  0  0  0  0  0  0  0  0  0
  1  2  1  0
  2  3  1  0
  3  4  1  0
  4  5  1  0
  5  6  1  0
  6  7  1  0
  7  8  1  0
  8  9  2  0
  8 10  1  0
  4 11  2  0
  1 12  2  0
  1 13  1  0
M  END
>  <cdk:Title>  (441) 
Glutarylglycine

>  <1A2>  (441) 
N

>  <2A6>  (441) 
N

>  <2B6>  (441) 
N

>  <2C8>  (441) 
N

>  <2C9>  (441) 
N

>  <2C19>  (441) 
N

>  <2D6>  (441) 
N

>  <2E1>  (441) 
N

>  <3A4>  (441) 
N

>  <Citation>  (441) 
Nucleic Acids Res. 2018. Jan 4;46(D1):D608-17. PMID:29140435
Nucleic Acids Res. 2018 Jan 4;46(D1):D1074-D1082. PMID:29126136
Nucleic Acids Res., 45:D380-388 (2017).  PMID:27924025
Nucleic Acids Res. 2016 Jan 4;44(D1):D1202-13. PMID:26400175

>  <ROMol>  (441) 
<rdkit.Chem.rdchem.Mol object at 0x7c2905d5d1c0>

>  <Drug_like>  (441) 
True

$$$$
2-Aminoacetophenone
     RDKit          2D

 10 10  0  0  0  0  0  0  0  0999 V2000
    2.5537   -0.3532    0.0000 C   0  0  0  0  0  0  0  0  0  0  0  0
    2.5542    1.1476    0.0000 C   0  0  0  0  0  0  0  0  0  0  0  0
    1.2552    1.8976    0.0000 C   0  0  0  0  0  0  0  0  0  0  0  0
   -0.0443    1.1468    0.0000 C   0  0  0  0  0  0  0  0  0  0  0  0
   -0.0448   -0.3540    0.0000 C   0  0  0  0  0  0  0  0  0  0  0  0
    1.2542   -1.1040    0.0000 C   0  0  0  0  0  0  0  0  0  0  0  0
   -1.3434    1.8968    0.0000 C   0  0  0  0  0  0  0  0  0  0  0  0
   -2.6424    1.1468    0.0000 C   0  0  0  0  0  0  0  0  0  0  0  0
   -3.9414    1.8968    0.0000 N   0  0  0  0  0  0  0  0  0  0  0  0
   -1.3434    3.3968    0.0000 O   0  0  0  0  0  0  0  0  0  0  0  0
  1  2  2  0
  2  3  1  0
  3  4  2  0
  4  5  1  0
  5  6  2  0
  1  6  1  0
  4  7  1  0
  7  8  1  0
  8  9  1  0
  7 10  2  0
M  END
>  <cdk:Title>  (442) 
2-Aminoacetophenone

>  <1A2>  (442) 
N

>  <2A6>  (442) 
N

>  <2B6>  (442) 
N

>  <2C8>  (442) 
N

>  <2C9>  (442) 
N

>  <2C19>  (442) 
N

>  <2D6>  (442) 
N

>  <2E1>  (442) 
N

>  <3A4>  (442) 
N

>  <Citation>  (442) 
Nucleic Acids Res. 2018. Jan 4;46(D1):D608-17. PMID:29140435
Nucleic Acids Res. 2018 Jan 4;46(D1):D1074-D1082. PMID:29126136
Nucleic Acids Res., 45:D380-388 (2017).  PMID:27924025
Nucleic Acids Res. 2016 Jan 4;44(D1):D1202-13. PMID:26400175

>  <ROMol>  (442) 
<rdkit.Chem.rdchem.Mol object at 0x7c2905d5d2a0>

>  <Drug_like>  (442) 
True

$$$$
His-gly
     RDKit          2D

 15 15  0  0  0  0  0  0  0  0999 V2000
    1.8544    0.9862    0.0000 N   0  0  0  0  0  0  0  0  0  0  0  0
    3.3424    0.7966    0.0000 C   0  0  0  0  0  0  0  0  0  0  0  0
    3.9221   -0.5869    0.0000 O   0  0  0  0  0  0  0  0  0  0  0  0
    4.2506    1.9903    0.0000 C   0  0  0  0  0  0  0  0  0  0  0  0
    4.6957    3.4228    0.0000 N   0  0  0  0  0  0  0  0  0  0  0  0
    5.7386    1.8007    0.0000 C   0  0  0  0  0  0  0  0  0  0  0  0
    6.9374    3.3765    0.0000 C   0  0  0  0  0  0  0  0  0  0  0  0
    6.5074    4.8165    0.0000 C   0  0  0  0  0  0  0  0  0  0  0  0
    7.7374    5.6665    0.0000 N   0  0  0  0  0  0  0  0  0  0  0  0
    8.9274    4.7565    0.0000 C   0  0  0  0  0  0  0  0  0  0  0  0
    8.4274    3.3465    0.0000 N   0  0  0  0  0  0  0  0  0  0  0  0
    0.9462   -0.2076    0.0000 C   0  0  0  0  0  0  0  0  0  0  0  0
   -0.5418   -0.0179    0.0000 C   0  0  0  0  0  0  0  0  0  0  0  0
   -1.4500   -1.2117    0.0000 O   0  0  0  0  0  0  0  0  0  0  0  0
   -1.1215    1.3655    0.0000 O   0  0  0  0  0  0  0  0  0  0  0  0
  1  2  1  0
  2  3  2  0
  2  4  1  0
  4  5  1  0
  4  6  1  0
  6  7  1  0
  7  8  2  0
  8  9  1  0
  9 10  2  0
 10 11  1  0
  7 11  1  0
  1 12  1  0
 12 13  1  0
 13 14  1  0
 13 15  2  0
M  END
>  <cdk:Title>  (443) 
His-gly

>  <1A2>  (443) 
N

>  <2A6>  (443) 
N

>  <2B6>  (443) 
N

>  <2C8>  (443) 
N

>  <2C9>  (443) 
N

>  <2C19>  (443) 
N

>  <2D6>  (443) 
N

>  <2E1>  (443) 
N

>  <3A4>  (443) 
N

>  <Citation>  (443) 
Nucleic Acids Res. 2018. Jan 4;46(D1):D608-17. PMID:29140435
Nucleic Acids Res. 2018 Jan 4;46(D1):D1074-D1082. PMID:29126136
Nucleic Acids Res., 45:D380-388 (2017).  PMID:27924025
Nucleic Acids Res. 2016 Jan 4;44(D1):D1202-13. PMID:26400175

>  <ROMol>  (443) 
<rdkit.Chem.rdchem.Mol object at 0x7c2905d5d310>

>  <Drug_like>  (443) 
True

$$$$
15-oxo-Lipoxin a4
     RDKit          2D

 25 24  0  0  0  0  0  0  0  0999 V2000
   30.7567    3.9183    0.0000 C   0  0  0  0  0  0  0  0  0  0  0  0
   29.2567    3.9183    0.0000 C   0  0  0  0  0  0  0  0  0  0  0  0
   28.5067    2.6193    0.0000 C   0  0  0  0  0  0  0  0  0  0  0  0
   26.0467    2.6193    0.0000 C   0  0  0  0  0  0  0  0  0  0  0  0
   25.2967    1.3203    0.0000 C   0  0  0  0  0  0  0  0  0  0  0  0
   23.7967    1.3203    0.0000 C   0  0  0  0  0  0  0  0  0  0  0  0
   23.0467    2.6193    0.0000 O   0  0  0  0  0  0  0  0  0  0  0  0
   23.0467    0.0212    0.0000 C   0  0  0  0  0  0  0  0  0  0  0  0
   21.5467    0.0212    0.0000 C   0  0  0  0  0  0  0  0  0  0  0  0
   20.7967   -1.2778    0.0000 C   0  0  0  0  0  0  0  0  0  0  0  0
   19.2967   -1.2778    0.0000 C   0  0  0  0  0  0  0  0  0  0  0  0
   18.5467    0.0212    0.0000 C   0  0  0  0  0  0  0  0  0  0  0  0
   17.0467    0.0212    0.0000 C   0  0  0  0  0  0  0  0  0  0  0  0
   16.2967    1.3203    0.0000 C   0  0  0  0  0  0  0  0  0  0  0  0
   14.7967    1.3203    0.0000 C   0  0  0  0  0  0  0  0  0  0  0  0
   14.0467    2.6193    0.0000 C   0  0  0  0  0  0  0  0  0  0  0  0
   13.7862    4.0965    0.0000 O   0  0  0  0  0  0  0  0  0  0  0  0
   12.0667    2.6193    0.0000 C   0  0  0  0  0  0  0  0  0  0  0  0
   12.3271    1.1421    0.0000 O   0  0  0  0  0  0  0  0  0  0  0  0
   11.0767    4.3340    0.0000 C   0  0  0  0  0  0  0  0  0  0  0  0
    9.0967    4.3340    0.0000 C   0  0  0  0  0  0  0  0  0  0  0  0
    8.3467    5.6331    0.0000 C   0  0  0  0  0  0  0  0  0  0  0  0
    6.8467    5.6331    0.0000 C   0  0  0  0  0  0  0  0  0  0  0  0
    6.0967    6.9321    0.0000 O   0  0  0  0  0  0  0  0  0  0  0  0
    6.0967    4.3340    0.0000 O   0  0  0  0  0  0  0  0  0  0  0  0
  1  2  1  0
  2  3  1  0
  3  4  1  0
  4  5  1  0
  5  6  1  0
  6  7  2  0
  6  8  1  0
  8  9  2  0
  9 10  1  0
 10 11  2  0
 11 12  1  0
 12 13  2  0
 13 14  1  0
 14 15  2  0
 15 16  1  0
 16 17  1  0
 16 18  1  0
 18 19  1  0
 18 20  1  0
 20 21  1  0
 21 22  1  0
 22 23  1  0
 23 24  1  0
 23 25  2  0
M  END
>  <cdk:Title>  (444) 
15-oxo-Lipoxin a4

>  <1A2>  (444) 
N

>  <2A6>  (444) 
N

>  <2B6>  (444) 
N

>  <2C8>  (444) 
N

>  <2C9>  (444) 
N

>  <2C19>  (444) 
N

>  <2D6>  (444) 
N

>  <2E1>  (444) 
N

>  <3A4>  (444) 
N

>  <Citation>  (444) 
Nucleic Acids Res. 2018. Jan 4;46(D1):D608-17. PMID:29140435
Nucleic Acids Res. 2018 Jan 4;46(D1):D1074-D1082. PMID:29126136
Nucleic Acids Res., 45:D380-388 (2017).  PMID:27924025
Nucleic Acids Res. 2016 Jan 4;44(D1):D1202-13. PMID:26400175

>  <ROMol>  (444) 
<rdkit.Chem.rdchem.Mol object at 0x7c2905d5d380>

>  <Drug_like>  (444) 
True

$$$$
Acetylamino-acetic acid
     RDKit          2D

  8  7  0  0  0  0  0  0  0  0999 V2000
    1.2990   -0.7500    0.0000 C   0  0  0  0  0  0  0  0  0  0  0  0
    2.5981    0.0000    0.0000 C   0  0  0  0  0  0  0  0  0  0  0  0
    2.5981    1.5000    0.0000 O   0  0  0  0  0  0  0  0  0  0  0  0
    3.8971   -0.7500    0.0000 N   0  0  0  0  0  0  0  0  0  0  0  0
    5.1962   -0.0000    0.0000 C   0  0  0  0  0  0  0  0  0  0  0  0
    6.4952   -0.7500    0.0000 C   0  0  0  0  0  0  0  0  0  0  0  0
    7.7942   -0.0000    0.0000 O   0  0  0  0  0  0  0  0  0  0  0  0
    6.4952   -2.2500    0.0000 O   0  0  0  0  0  0  0  0  0  0  0  0
  1  2  1  0
  2  3  2  0
  2  4  1  0
  4  5  1  0
  5  6  1  0
  6  7  1  0
  6  8  2  0
M  END
>  <cdk:Title>  (445) 
Acetylamino-acetic acid

>  <1A2>  (445) 
N

>  <2A6>  (445) 
N

>  <2B6>  (445) 
N

>  <2C8>  (445) 
N

>  <2C9>  (445) 
N

>  <2C19>  (445) 
N

>  <2D6>  (445) 
N

>  <2E1>  (445) 
N

>  <3A4>  (445) 
N

>  <Citation>  (445) 
Nucleic Acids Res. 2018. Jan 4;46(D1):D608-17. PMID:29140435
Nucleic Acids Res. 2018 Jan 4;46(D1):D1074-D1082. PMID:29126136
Nucleic Acids Res., 45:D380-388 (2017).  PMID:27924025
Nucleic Acids Res. 2016 Jan 4;44(D1):D1202-13. PMID:26400175

>  <ROMol>  (445) 
<rdkit.Chem.rdchem.Mol object at 0x7c2905d5d460>

>  <Drug_like>  (445) 
True

$$$$
Ar-turmerone
     RDKit          2D

 16 16  0  0  0  0  0  0  0  0999 V2000
    3.9423    7.5934    0.0000 C   0  0  0  0  0  0  0  0  0  0  0  0
    4.7344    6.3196    0.0000 C   0  0  0  0  0  0  0  0  0  0  0  0
    6.2336    6.3686    0.0000 C   0  0  0  0  0  0  0  0  0  0  0  0
    4.0272    4.9967    0.0000 C   0  0  0  0  0  0  0  0  0  0  0  0
    2.5280    4.9477    0.0000 C   0  0  0  0  0  0  0  0  0  0  0  0
    1.5946    3.2015    0.0000 C   0  0  0  0  0  0  0  0  0  0  0  0
    0.0954    3.1525    0.0000 C   0  0  0  0  0  0  0  0  0  0  0  0
    0.3075    4.6374    0.0000 C   0  0  0  0  0  0  0  0  0  0  0  0
   -0.6117    1.8296    0.0000 C   0  0  0  0  0  0  0  0  0  0  0  0
   -2.0606    1.8001    0.0000 C   0  0  0  0  0  0  0  0  0  0  0  0
   -2.8092    0.5234    0.0000 C   0  0  0  0  0  0  0  0  0  0  0  0
   -2.0024   -0.7392    0.0000 C   0  0  0  0  0  0  0  0  0  0  0  0
   -2.7095   -2.0620    0.0000 C   0  0  0  0  0  0  0  0  0  0  0  0
   -0.5535   -0.7097    0.0000 C   0  0  0  0  0  0  0  0  0  0  0  0
    0.1951    0.5671    0.0000 C   0  0  0  0  0  0  0  0  0  0  0  0
    1.7360    6.2215    0.0000 O   0  0  0  0  0  0  0  0  0  0  0  0
  1  2  1  0
  2  3  1  0
  2  4  2  0
  4  5  1  0
  5  6  1  0
  6  7  1  0
  7  8  1  0
  7  9  1  0
  9 10  2  0
 10 11  1  0
 11 12  2  0
 12 13  1  0
 12 14  1  0
 14 15  2  0
  9 15  1  0
  5 16  2  0
M  END
>  <cdk:Title>  (446) 
Ar-turmerone

>  <1A2>  (446) 
N

>  <2A6>  (446) 
N

>  <2B6>  (446) 
N

>  <2C8>  (446) 
N

>  <2C9>  (446) 
N

>  <2C19>  (446) 
N

>  <2D6>  (446) 
N

>  <2E1>  (446) 
N

>  <3A4>  (446) 
N

>  <Citation>  (446) 
Nucleic Acids Res. 2018. Jan 4;46(D1):D608-17. PMID:29140435
Nucleic Acids Res. 2018 Jan 4;46(D1):D1074-D1082. PMID:29126136
Nucleic Acids Res., 45:D380-388 (2017).  PMID:27924025
Nucleic Acids Res. 2016 Jan 4;44(D1):D1202-13. PMID:26400175

>  <ROMol>  (446) 
<rdkit.Chem.rdchem.Mol object at 0x7c2905d5d4d0>

>  <Drug_like>  (446) 
True

$$$$
Methyl (9Z)-8'-oxo-6_8'-diapo-6-carotenoate
     RDKit          2D

 26 25  0  0  0  0  0  0  0  0999 V2000
   14.2894   -2.2500    0.0000 C   0  0  0  0  0  0  0  0  0  0  0  0
   14.2894   -0.7500    0.0000 C   0  0  0  0  0  0  0  0  0  0  0  0
   12.9904   -0.0000    0.0000 C   0  0  0  0  0  0  0  0  0  0  0  0
   11.6913   -0.7500    0.0000 C   0  0  0  0  0  0  0  0  0  0  0  0
   10.3923   -0.0000    0.0000 C   0  0  0  0  0  0  0  0  0  0  0  0
    9.0933   -0.7500    0.0000 C   0  0  0  0  0  0  0  0  0  0  0  0
    7.7942   -0.0000    0.0000 C   0  0  0  0  0  0  0  0  0  0  0  0
    7.7942    1.5000    0.0000 C   0  0  0  0  0  0  0  0  0  0  0  0
    6.4952   -0.7500    0.0000 C   0  0  0  0  0  0  0  0  0  0  0  0
    5.1962   -0.0000    0.0000 C   0  0  0  0  0  0  0  0  0  0  0  0
    3.8971   -0.7500    0.0000 C   0  0  0  0  0  0  0  0  0  0  0  0
    2.5981   -0.0000    0.0000 C   0  0  0  0  0  0  0  0  0  0  0  0
    2.5981    1.5000    0.0000 C   0  0  0  0  0  0  0  0  0  0  0  0
    1.2990   -0.7500    0.0000 C   0  0  0  0  0  0  0  0  0  0  0  0
    0.0000    0.0000    0.0000 O   0  0  0  0  0  0  0  0  0  0  0  0
   15.5885   -0.0000    0.0000 C   0  0  0  0  0  0  0  0  0  0  0  0
   16.8875   -0.7500    0.0000 C   0  0  0  0  0  0  0  0  0  0  0  0
   18.1865   -0.0000    0.0000 C   0  0  0  0  0  0  0  0  0  0  0  0
   19.4856   -0.7500    0.0000 C   0  0  0  0  0  0  0  0  0  0  0  0
   20.7846   -0.0000    0.0000 C   0  0  0  0  0  0  0  0  0  0  0  0
   19.4856   -2.2500    0.0000 C   0  0  0  0  0  0  0  0  0  0  0  0
   20.7846   -3.0000    0.0000 C   0  0  0  0  0  0  0  0  0  0  0  0
   20.7846   -4.5000    0.0000 C   0  0  0  0  0  0  0  0  0  0  0  0
   19.4856   -5.2500    0.0000 O   0  0  0  0  0  0  0  0  0  0  0  0
   22.0836   -5.2500    0.0000 O   0  0  0  0  0  0  0  0  0  0  0  0
   22.0836   -6.7500    0.0000 C   0  0  0  0  0  0  0  0  0  0  0  0
  1  2  1  0
  2  3  2  0
  3  4  1  0
  4  5  2  0
  5  6  1  0
  6  7  2  0
  7  8  1  0
  7  9  1  0
  9 10  2  0
 10 11  1  0
 11 12  2  0
 12 13  1  0
 12 14  1  0
 14 15  2  0
  2 16  1  0
 16 17  2  0
 17 18  1  0
 18 19  2  0
 19 20  1  0
 19 21  1  0
 21 22  2  0
 22 23  1  0
 23 24  2  0
 23 25  1  0
 25 26  1  0
M  END
>  <cdk:Title>  (447) 
Methyl (9Z)-8'-oxo-6_8'-diapo-6-carotenoate

>  <1A2>  (447) 
N

>  <2A6>  (447) 
N

>  <2B6>  (447) 
N

>  <2C8>  (447) 
N

>  <2C9>  (447) 
N

>  <2C19>  (447) 
N

>  <2D6>  (447) 
N

>  <2E1>  (447) 
N

>  <3A4>  (447) 
N

>  <Citation>  (447) 
Nucleic Acids Res. 2018. Jan 4;46(D1):D608-17. PMID:29140435
Nucleic Acids Res. 2018 Jan 4;46(D1):D1074-D1082. PMID:29126136
Nucleic Acids Res., 45:D380-388 (2017).  PMID:27924025
Nucleic Acids Res. 2016 Jan 4;44(D1):D1202-13. PMID:26400175

>  <ROMol>  (447) 
<rdkit.Chem.rdchem.Mol object at 0x7c2905d5d540>

>  <Drug_like>  (447) 
True

$$$$
Avocadienofuran
     RDKit          2D

 18 18  0  0  0  0  0  0  0  0999 V2000
   -0.6419   11.2505    0.0000 C   0  0  0  0  0  0  0  0  0  0  0  0
   -0.1798    9.8234    0.0000 C   0  0  0  0  0  0  0  0  0  0  0  0
    1.2871    9.5101    0.0000 C   0  0  0  0  0  0  0  0  0  0  0  0
    1.7491    8.0830    0.0000 C   0  0  0  0  0  0  0  0  0  0  0  0
    4.1549    7.5691    0.0000 C   0  0  0  0  0  0  0  0  0  0  0  0
    4.7648    5.6854    0.0000 C   0  0  0  0  0  0  0  0  0  0  0  0
    6.2317    5.3720    0.0000 C   0  0  0  0  0  0  0  0  0  0  0  0
    6.9895    3.0316    0.0000 C   0  0  0  0  0  0  0  0  0  0  0  0
    8.9258    2.6180    0.0000 C   0  0  0  0  0  0  0  0  0  0  0  0
    9.5357    0.7343    0.0000 C   0  0  0  0  0  0  0  0  0  0  0  0
   11.0026    0.4209    0.0000 C   0  0  0  0  0  0  0  0  0  0  0  0
   11.4647   -1.0062    0.0000 C   0  0  0  0  0  0  0  0  0  0  0  0
   12.9316   -1.3195    0.0000 C   0  0  0  0  0  0  0  0  0  0  0  0
   13.9364   -0.2058    0.0000 C   0  0  0  0  0  0  0  0  0  0  0  0
   15.4245   -0.3571    0.0000 C   0  0  0  0  0  0  0  0  0  0  0  0
   16.0374    1.0120    0.0000 C   0  0  0  0  0  0  0  0  0  0  0  0
   14.9293    2.0121    0.0000 C   0  0  0  0  0  0  0  0  0  0  0  0
   13.6317    1.2672    0.0000 O   0  0  0  0  0  0  0  0  0  0  0  0
  1  2  2  0
  2  3  1  0
  3  4  1  0
  4  5  1  0
  5  6  1  0
  6  7  1  0
  7  8  1  0
  8  9  1  0
  9 10  1  0
 10 11  1  0
 11 12  1  0
 12 13  2  0
 13 14  1  0
 14 15  2  0
 15 16  1  0
 16 17  2  0
 17 18  1  0
 14 18  1  0
M  END
>  <cdk:Title>  (448) 
Avocadienofuran

>  <1A2>  (448) 
N

>  <2A6>  (448) 
N

>  <2B6>  (448) 
N

>  <2C8>  (448) 
N

>  <2C9>  (448) 
N

>  <2C19>  (448) 
N

>  <2D6>  (448) 
N

>  <2E1>  (448) 
N

>  <3A4>  (448) 
N

>  <Citation>  (448) 
Nucleic Acids Res. 2018. Jan 4;46(D1):D608-17. PMID:29140435
Nucleic Acids Res. 2018 Jan 4;46(D1):D1074-D1082. PMID:29126136
Nucleic Acids Res., 45:D380-388 (2017).  PMID:27924025
Nucleic Acids Res. 2016 Jan 4;44(D1):D1202-13. PMID:26400175

>  <ROMol>  (448) 
<rdkit.Chem.rdchem.Mol object at 0x7c2905d5d5b0>

>  <Drug_like>  (448) 
True

$$$$
5-Acetylamino-6-amino-3-methyluracil
     RDKit          2D

 14 14  0  0  0  0  0  0  0  0999 V2000
   -1.2983   -0.8407    0.0000 O   0  0  0  0  0  0  0  0  0  0  0  0
   -2.5972   -0.0905    0.0000 C   0  0  0  0  0  0  0  0  0  0  0  0
   -3.8972   -0.8405    0.0000 N   0  0  0  0  0  0  0  0  0  0  0  0
   -5.1972   -0.0905    0.0000 C   0  0  0  0  0  0  0  0  0  0  0  0
   -6.4962   -0.8407    0.0000 O   0  0  0  0  0  0  0  0  0  0  0  0
   -5.1972    1.4095    0.0000 N   0  0  0  0  0  0  0  0  0  0  0  0
   -3.8972    2.1595    0.0000 C   0  0  0  0  0  0  0  0  0  0  0  0
   -3.8972    3.6595    0.0000 N   0  0  0  0  0  0  0  0  0  0  0  0
   -2.5972    1.4095    0.0000 C   0  0  0  0  0  0  0  0  0  0  0  0
   -1.2983    2.1597    0.0000 N   0  0  0  0  0  0  0  0  0  0  0  0
    0.0008    1.4100    0.0000 C   0  0  0  0  0  0  0  0  0  0  0  0
    0.0011   -0.0900    0.0000 O   0  0  0  0  0  0  0  0  0  0  0  0
    1.2998    2.1602    0.0000 C   0  0  0  0  0  0  0  0  0  0  0  0
   -3.8972   -2.3405    0.0000 C   0  0  0  0  0  0  0  0  0  0  0  0
  1  2  2  0
  2  3  1  0
  3  4  1  0
  4  5  2  0
  4  6  1  0
  6  7  1  0
  7  8  1  0
  7  9  2  0
  2  9  1  0
  9 10  1  0
 10 11  1  0
 11 12  2  0
 11 13  1  0
  3 14  1  0
M  END
>  <cdk:Title>  (449) 
5-Acetylamino-6-amino-3-methyluracil

>  <1A2>  (449) 
N

>  <2A6>  (449) 
N

>  <2B6>  (449) 
N

>  <2C8>  (449) 
N

>  <2C9>  (449) 
N

>  <2C19>  (449) 
N

>  <2D6>  (449) 
N

>  <2E1>  (449) 
N

>  <3A4>  (449) 
N

>  <Citation>  (449) 
Nucleic Acids Res. 2018. Jan 4;46(D1):D608-17. PMID:29140435
Nucleic Acids Res. 2018 Jan 4;46(D1):D1074-D1082. PMID:29126136
Nucleic Acids Res., 45:D380-388 (2017).  PMID:27924025
Nucleic Acids Res. 2016 Jan 4;44(D1):D1202-13. PMID:26400175

>  <ROMol>  (449) 
<rdkit.Chem.rdchem.Mol object at 0x7c2905d5d620>

>  <Drug_like>  (449) 
True

$$$$
(1R_4R)-1-Methyl-4-(propan-2-yl)cyclohexane
     RDKit          2D

 10 10  0  0  0  0  0  0  0  0999 V2000
   -1.3537   -3.2580    0.0000 C   0  0  0  0  0  0  0  0  0  0  0  0
   -0.9500   -0.3459    0.0000 C   0  0  0  0  0  0  0  0  0  0  0  0
   -1.5146    1.0438    0.0000 C   0  0  0  0  0  0  0  0  0  0  0  0
    1.9621   -0.7495    0.0000 C   0  0  0  0  0  0  0  0  0  0  0  0
    3.2316   -1.4484    0.0000 C   0  0  0  0  0  0  0  0  0  0  0  0
    4.5184   -0.7170    0.0000 C   0  0  0  0  0  0  0  0  0  0  0  0
    4.4509    0.7798    0.0000 C   0  0  0  0  0  0  0  0  0  0  0  0
    7.3631    0.3762    0.0000 C   0  0  0  0  0  0  0  0  0  0  0  0
    3.1814    1.4787    0.0000 C   0  0  0  0  0  0  0  0  0  0  0  0
    1.8947    0.7473    0.0000 C   0  0  0  0  0  0  0  0  0  0  0  0
  1  2  1  0
  2  3  1  0
  2  4  1  0
  4  5  1  0
  5  6  1  0
  6  7  1  0
  7  8  1  0
  7  9  1  0
  9 10  1  0
  4 10  1  0
M  END
>  <cdk:Title>  (450) 
(1R_4R)-1-Methyl-4-(propan-2-yl)cyclohexane

>  <1A2>  (450) 
N

>  <2A6>  (450) 
N

>  <2B6>  (450) 
N

>  <2C8>  (450) 
N

>  <2C9>  (450) 
N

>  <2C19>  (450) 
N

>  <2D6>  (450) 
N

>  <2E1>  (450) 
N

>  <3A4>  (450) 
N

>  <Citation>  (450) 
Nucleic Acids Res. 2018. Jan 4;46(D1):D608-17. PMID:29140435
Nucleic Acids Res. 2018 Jan 4;46(D1):D1074-D1082. PMID:29126136
Nucleic Acids Res., 45:D380-388 (2017).  PMID:27924025
Nucleic Acids Res. 2016 Jan 4;44(D1):D1202-13. PMID:26400175

>  <ROMol>  (450) 
<rdkit.Chem.rdchem.Mol object at 0x7c2905d5d690>

>  <Drug_like>  (450) 
True

$$$$
Phyllocladene
     RDKit          2D

 20 23  0  0  0  0  0  0  0  0999 V2000
    1.0228   -0.5058    0.0000 C   0  0  0  0  0  0  0  0  0  0  0  0
    0.0028   -1.6058    0.0000 C   0  0  0  0  0  0  0  0  0  0  0  0
    0.2328   -3.0858    0.0000 C   0  0  0  0  0  0  0  0  0  0  0  0
   -1.0672   -3.8358    0.0000 C   0  0  0  0  0  0  0  0  0  0  0  0
   -2.3672   -3.0858    0.0000 C   0  0  0  0  0  0  0  0  0  0  0  0
   -3.6672   -3.8358    0.0000 C   0  0  0  0  0  0  0  0  0  0  0  0
   -3.6672   -5.3358    0.0000 C   0  0  0  0  0  0  0  0  0  0  0  0
   -2.3672   -6.0858    0.0000 C   0  0  0  0  0  0  0  0  0  0  0  0
   -1.0672   -5.3358    0.0000 C   0  0  0  0  0  0  0  0  0  0  0  0
    0.2328   -6.0858    0.0000 C   0  0  0  0  0  0  0  0  0  0  0  0
    1.5328   -5.3358    0.0000 C   0  0  0  0  0  0  0  0  0  0  0  0
    1.5328   -3.8358    0.0000 C   0  0  0  0  0  0  0  0  0  0  0  0
    1.3428   -2.0058    0.0000 C   0  0  0  0  0  0  0  0  0  0  0  0
    2.5228   -0.6158    0.0000 C   0  0  0  0  0  0  0  0  0  0  0  0
    3.3728   -1.8558    0.0000 C   0  0  0  0  0  0  0  0  0  0  0  0
    4.8564   -1.6346    0.0000 C   0  0  0  0  0  0  0  0  0  0  0  0
    2.9228   -3.2858    0.0000 C   0  0  0  0  0  0  0  0  0  0  0  0
   -4.2567   -8.3382    0.0000 C   0  0  0  0  0  0  0  0  0  0  0  0
   -1.5260   -8.3976    0.0000 C   0  0  0  0  0  0  0  0  0  0  0  0
   -0.5566   -0.9405    0.0000 C   0  0  0  0  0  0  0  0  0  0  0  0
  1  2  1  0
  2  3  1  0
  3  4  1  0
  4  5  1  0
  5  6  1  0
  6  7  1  0
  7  8  1  0
  8  9  1  0
  4  9  1  0
  9 10  1  0
 10 11  1  0
 12 11  1  6
  3 12  1  0
 12 13  1  0
 13 14  1  0
  1 14  1  0
 14 15  1  0
 15 16  2  0
 15 17  1  0
 12 17  1  0
  8 18  1  0
  8 19  1  0
  4 20  1  1
M  END
>  <cdk:Title>  (451) 
Phyllocladene

>  <1A2>  (451) 
N

>  <2A6>  (451) 
N

>  <2B6>  (451) 
N

>  <2C8>  (451) 
N

>  <2C9>  (451) 
N

>  <2C19>  (451) 
N

>  <2D6>  (451) 
N

>  <2E1>  (451) 
N

>  <3A4>  (451) 
N

>  <Citation>  (451) 
Nucleic Acids Res. 2018. Jan 4;46(D1):D608-17. PMID:29140435
Nucleic Acids Res. 2018 Jan 4;46(D1):D1074-D1082. PMID:29126136
Nucleic Acids Res., 45:D380-388 (2017).  PMID:27924025
Nucleic Acids Res. 2016 Jan 4;44(D1):D1202-13. PMID:26400175

>  <ROMol>  (451) 
<rdkit.Chem.rdchem.Mol object at 0x7c2905d5d700>

>  <Drug_like>  (451) 
True

$$$$
(9Z_12Z_15S_16S)-15_16-Epoxy-9_12-octadecadienoic acid
     RDKit          2D

 21 21  0  0  0  0  0  0  0  0999 V2000
  -11.4437   -9.1205    0.0000 C   0  0  0  0  0  0  0  0  0  0  0  0
  -10.4789  -10.2690    0.0000 C   0  0  0  0  0  0  0  0  0  0  0  0
   -8.5292   -9.9242    0.0000 C   0  0  0  0  0  0  0  0  0  0  0  0
   -8.0156  -11.3335    0.0000 C   0  0  0  0  0  0  0  0  0  0  0  0
   -7.0512  -12.4823    0.0000 C   0  0  0  0  0  0  0  0  0  0  0  0
   -5.1013  -12.1381    0.0000 C   0  0  0  0  0  0  0  0  0  0  0  0
   -4.5886  -10.7285    0.0000 C   0  0  0  0  0  0  0  0  0  0  0  0
   -5.5530   -9.5796    0.0000 C   0  0  0  0  0  0  0  0  0  0  0  0
   -5.0403   -8.1700    0.0000 C   0  0  0  0  0  0  0  0  0  0  0  0
   -3.5631   -7.9092    0.0000 C   0  0  0  0  0  0  0  0  0  0  0  0
   -2.5987   -9.0580    0.0000 C   0  0  0  0  0  0  0  0  0  0  0  0
   -1.1215   -8.7972    0.0000 C   0  0  0  0  0  0  0  0  0  0  0  0
   -0.6088   -7.3876    0.0000 C   0  0  0  0  0  0  0  0  0  0  0  0
    1.8137   -6.9599    0.0000 C   0  0  0  0  0  0  0  0  0  0  0  0
    2.4905   -5.0992    0.0000 C   0  0  0  0  0  0  0  0  0  0  0  0
    4.4404   -4.7549    0.0000 C   0  0  0  0  0  0  0  0  0  0  0  0
    4.9531   -3.3453    0.0000 C   0  0  0  0  0  0  0  0  0  0  0  0
    6.4303   -3.0845    0.0000 C   0  0  0  0  0  0  0  0  0  0  0  0
    6.9430   -1.6748    0.0000 O   0  0  0  0  0  0  0  0  0  0  0  0
    7.3947   -4.2333    0.0000 O   0  0  0  0  0  0  0  0  0  0  0  0
   -7.0510  -10.1837    0.0000 O   0  0  0  0  0  0  0  0  0  0  0  0
  1  2  1  0
  2  3  1  0
  3  4  1  0
  4  5  1  0
  5  6  1  0
  6  7  2  0
  7  8  1  0
  8  9  1  0
  9 10  2  0
 10 11  1  0
 11 12  1  0
 12 13  1  0
 13 14  1  0
 14 15  1  0
 15 16  1  0
 16 17  1  0
 17 18  1  0
 18 19  1  0
 18 20  2  0
  4 21  1  0
  3 21  1  0
M  END
>  <cdk:Title>  (452) 
(9Z_12Z_15S_16S)-15_16-Epoxy-9_12-octadecadienoic acid

>  <1A2>  (452) 
N

>  <2A6>  (452) 
N

>  <2B6>  (452) 
N

>  <2C8>  (452) 
N

>  <2C9>  (452) 
N

>  <2C19>  (452) 
N

>  <2D6>  (452) 
N

>  <2E1>  (452) 
N

>  <3A4>  (452) 
N

>  <Citation>  (452) 
Nucleic Acids Res. 2018. Jan 4;46(D1):D608-17. PMID:29140435
Nucleic Acids Res. 2018 Jan 4;46(D1):D1074-D1082. PMID:29126136
Nucleic Acids Res., 45:D380-388 (2017).  PMID:27924025
Nucleic Acids Res. 2016 Jan 4;44(D1):D1202-13. PMID:26400175

>  <ROMol>  (452) 
<rdkit.Chem.rdchem.Mol object at 0x7c2905d5d770>

>  <Drug_like>  (452) 
True

$$$$
Eupolauridine
     RDKit          2D

 16 19  0  0  0  0  0  0  0  0999 V2000
   -3.9300   -0.7500    0.0000 C   0  0  0  0  0  0  0  0  0  0  0  0
   -3.9400    0.7500    0.0000 C   0  0  0  0  0  0  0  0  0  0  0  0
   -2.6500    1.5100    0.0000 C   0  0  0  0  0  0  0  0  0  0  0  0
   -1.3400    0.7700    0.0000 C   0  0  0  0  0  0  0  0  0  0  0  0
   -1.3400   -0.7300    0.0000 C   0  0  0  0  0  0  0  0  0  0  0  0
   -2.6200   -1.4900    0.0000 C   0  0  0  0  0  0  0  0  0  0  0  0
    0.0800   -1.2000    0.0000 C   0  0  0  0  0  0  0  0  0  0  0  0
    0.9200    0.0000    0.0000 C   0  0  0  0  0  0  0  0  0  0  0  0
    2.3900   -0.0100    0.0000 C   0  0  0  0  0  0  0  0  0  0  0  0
    3.0700   -1.3700    0.0000 C   0  0  0  0  0  0  0  0  0  0  0  0
    2.2500   -2.6300    0.0000 C   0  0  0  0  0  0  0  0  0  0  0  0
    0.7600   -2.5400    0.0000 N   0  0  0  0  0  0  0  0  0  0  0  0
    3.1100    1.3100    0.0000 C   0  0  0  0  0  0  0  0  0  0  0  0
    2.3300    2.6000    0.0000 C   0  0  0  0  0  0  0  0  0  0  0  0
    0.8200    2.5500    0.0000 N   0  0  0  0  0  0  0  0  0  0  0  0
    0.1000    1.2300    0.0000 C   0  0  0  0  0  0  0  0  0  0  0  0
  1  2  2  0
  2  3  1  0
  3  4  2  0
  4  5  1  0
  5  6  2  0
  1  6  1  0
  5  7  1  0
  7  8  2  0
  8  9  1  0
  9 10  2  0
 10 11  1  0
 11 12  2  0
  7 12  1  0
  9 13  1  0
 13 14  2  0
 14 15  1  0
 15 16  2  0
  4 16  1  0
  8 16  1  0
M  END
>  <cdk:Title>  (453) 
Eupolauridine

>  <1A2>  (453) 
N

>  <2A6>  (453) 
N

>  <2B6>  (453) 
N

>  <2C8>  (453) 
N

>  <2C9>  (453) 
N

>  <2C19>  (453) 
N

>  <2D6>  (453) 
N

>  <2E1>  (453) 
N

>  <3A4>  (453) 
N

>  <Citation>  (453) 
Nucleic Acids Res. 2018. Jan 4;46(D1):D608-17. PMID:29140435
Nucleic Acids Res. 2018 Jan 4;46(D1):D1074-D1082. PMID:29126136
Nucleic Acids Res., 45:D380-388 (2017).  PMID:27924025
Nucleic Acids Res. 2016 Jan 4;44(D1):D1202-13. PMID:26400175

>  <ROMol>  (453) 
<rdkit.Chem.rdchem.Mol object at 0x7c2905d5d8c0>

>  <Drug_like>  (453) 
True

$$$$
1-Acetoxy-4_6-tetradecadiene-8_10_12-triyne
     RDKit          2D

 18 17  0  0  0  0  0  0  0  0999 V2000
    0.8833    0.3509    0.0000 C   0  0  0  0  0  0  0  0  0  0  0  0
    2.1824   -0.3991    0.0000 C   0  0  0  0  0  0  0  0  0  0  0  0
    3.4814   -1.1491    0.0000 C   0  0  0  0  0  0  0  0  0  0  0  0
    4.7805   -1.8991    0.0000 C   0  0  0  0  0  0  0  0  0  0  0  0
    6.0795   -2.6491    0.0000 C   0  0  0  0  0  0  0  0  0  0  0  0
    7.3785   -3.3991    0.0000 C   0  0  0  0  0  0  0  0  0  0  0  0
    8.6776   -4.1491    0.0000 C   0  0  0  0  0  0  0  0  0  0  0  0
    9.9766   -4.8991    0.0000 C   0  0  0  0  0  0  0  0  0  0  0  0
   11.2757   -4.1491    0.0000 C   0  0  0  0  0  0  0  0  0  0  0  0
   12.5747   -4.8991    0.0000 C   0  0  0  0  0  0  0  0  0  0  0  0
   13.8737   -4.1491    0.0000 C   0  0  0  0  0  0  0  0  0  0  0  0
   15.1728   -4.8991    0.0000 C   0  0  0  0  0  0  0  0  0  0  0  0
   16.8875   -3.9091    0.0000 C   0  0  0  0  0  0  0  0  0  0  0  0
   18.1865   -4.6591    0.0000 C   0  0  0  0  0  0  0  0  0  0  0  0
   19.4856   -3.9091    0.0000 O   0  0  0  0  0  0  0  0  0  0  0  0
   20.7846   -4.6591    0.0000 C   0  0  0  0  0  0  0  0  0  0  0  0
   22.0836   -3.9091    0.0000 C   0  0  0  0  0  0  0  0  0  0  0  0
   20.7846   -6.1591    0.0000 O   0  0  0  0  0  0  0  0  0  0  0  0
  1  2  1  0
  2  3  3  0
  3  4  1  0
  4  5  3  0
  5  6  1  0
  6  7  3  0
  7  8  1  0
  8  9  2  0
  9 10  1  0
 10 11  2  0
 11 12  1  0
 12 13  1  0
 13 14  1  0
 14 15  1  0
 15 16  1  0
 16 17  1  0
 16 18  2  0
M  END
>  <cdk:Title>  (454) 
1-Acetoxy-4_6-tetradecadiene-8_10_12-triyne

>  <1A2>  (454) 
N

>  <2A6>  (454) 
N

>  <2B6>  (454) 
N

>  <2C8>  (454) 
N

>  <2C9>  (454) 
N

>  <2C19>  (454) 
N

>  <2D6>  (454) 
N

>  <2E1>  (454) 
N

>  <3A4>  (454) 
N

>  <Citation>  (454) 
Nucleic Acids Res. 2018. Jan 4;46(D1):D608-17. PMID:29140435
Nucleic Acids Res. 2018 Jan 4;46(D1):D1074-D1082. PMID:29126136
Nucleic Acids Res., 45:D380-388 (2017).  PMID:27924025
Nucleic Acids Res. 2016 Jan 4;44(D1):D1202-13. PMID:26400175

>  <ROMol>  (454) 
<rdkit.Chem.rdchem.Mol object at 0x7c2905d5d930>

>  <Drug_like>  (454) 
True

$$$$
Batatasin III
     RDKit          2D

 18 19  0  0  0  0  0  0  0  0999 V2000
    9.0906   -3.0066    0.0000 C   0  0  0  0  0  0  0  0  0  0  0  0
    7.7915   -3.7566    0.0000 O   0  0  0  0  0  0  0  0  0  0  0  0
    6.4925   -3.0066    0.0000 C   0  0  0  0  0  0  0  0  0  0  0  0
    5.1930   -3.7574    0.0000 C   0  0  0  0  0  0  0  0  0  0  0  0
    3.8939   -3.0074    0.0000 C   0  0  0  0  0  0  0  0  0  0  0  0
    2.5948   -3.7572    0.0000 C   0  0  0  0  0  0  0  0  0  0  0  0
    1.2959   -3.0070    0.0000 C   0  0  0  0  0  0  0  0  0  0  0  0
   -0.0033   -3.7568    0.0000 C   0  0  0  0  0  0  0  0  0  0  0  0
   -0.0038   -5.2576    0.0000 C   0  0  0  0  0  0  0  0  0  0  0  0
   -1.2983   -5.9998    0.0000 C   0  0  0  0  0  0  0  0  0  0  0  0
   -2.5973   -5.2498    0.0000 C   0  0  0  0  0  0  0  0  0  0  0  0
   -2.6019   -3.7576    0.0000 C   0  0  0  0  0  0  0  0  0  0  0  0
   -1.3023   -3.0068    0.0000 C   0  0  0  0  0  0  0  0  0  0  0  0
   -3.9022   -3.0098    0.0000 O   0  0  0  0  0  0  0  0  0  0  0  0
    3.8944   -1.5066    0.0000 C   0  0  0  0  0  0  0  0  0  0  0  0
    5.1939   -0.7557    0.0000 C   0  0  0  0  0  0  0  0  0  0  0  0
    6.4930   -1.5057    0.0000 C   0  0  0  0  0  0  0  0  0  0  0  0
    5.1937    0.7443    0.0000 O   0  0  0  0  0  0  0  0  0  0  0  0
  1  2  1  0
  2  3  1  0
  3  4  2  0
  4  5  1  0
  5  6  1  0
  6  7  1  0
  7  8  1  0
  8  9  2  0
  9 10  1  0
 10 11  2  0
 11 12  1  0
 12 13  2  0
  8 13  1  0
 12 14  1  0
  5 15  2  0
 15 16  1  0
 16 17  2  0
  3 17  1  0
 16 18  1  0
M  END
>  <cdk:Title>  (455) 
Batatasin III

>  <1A2>  (455) 
N

>  <2A6>  (455) 
N

>  <2B6>  (455) 
N

>  <2C8>  (455) 
N

>  <2C9>  (455) 
N

>  <2C19>  (455) 
N

>  <2D6>  (455) 
N

>  <2E1>  (455) 
N

>  <3A4>  (455) 
N

>  <Citation>  (455) 
Nucleic Acids Res. 2018. Jan 4;46(D1):D608-17. PMID:29140435
Nucleic Acids Res. 2018 Jan 4;46(D1):D1074-D1082. PMID:29126136
Nucleic Acids Res., 45:D380-388 (2017).  PMID:27924025
Nucleic Acids Res. 2016 Jan 4;44(D1):D1202-13. PMID:26400175

>  <ROMol>  (455) 
<rdkit.Chem.rdchem.Mol object at 0x7c2905d5d9a0>

>  <Drug_like>  (455) 
True

$$$$
CJ-25879
     RDKit          2D

 12 11  0  0  0  0  0  0  0  0999 V2000
    7.6614   -2.3791    0.0000 C   0  0  0  0  0  0  0  0  0  0  0  0
    8.6256   -1.2300    0.0000 C   0  0  0  0  0  0  0  0  0  0  0  0
    9.9247   -0.4800    0.0000 O   0  0  0  0  0  0  0  0  0  0  0  0
    6.4952   -0.0000    0.0000 C   0  0  0  0  0  0  0  0  0  0  0  0
    5.1962   -0.7500    0.0000 N   0  0  0  0  0  0  0  0  0  0  0  0
    3.8971    0.0000    0.0000 C   0  0  0  0  0  0  0  0  0  0  0  0
    3.8971    1.5000    0.0000 O   0  0  0  0  0  0  0  0  0  0  0  0
    2.5981   -0.7500    0.0000 C   0  0  0  0  0  0  0  0  0  0  0  0
    1.2990    0.0000    0.0000 N   0  0  0  0  0  0  0  0  0  0  0  0
    7.4594    1.1491    0.0000 C   0  0  0  0  0  0  0  0  0  0  0  0
    8.9366    0.8886    0.0000 O   0  0  0  0  0  0  0  0  0  0  0  0
    6.9463    2.5586    0.0000 O   0  0  0  0  0  0  0  0  0  0  0  0
  1  2  1  0
  2  3  1  0
  2  4  1  0
  4  5  1  0
  5  6  1  0
  6  7  2  0
  6  8  1  0
  8  9  1  0
  4 10  1  0
 10 11  1  0
 10 12  2  0
M  END
>  <cdk:Title>  (456) 
CJ-25879

>  <1A2>  (456) 
N

>  <2A6>  (456) 
N

>  <2B6>  (456) 
N

>  <2C8>  (456) 
N

>  <2C9>  (456) 
N

>  <2C19>  (456) 
N

>  <2D6>  (456) 
N

>  <2E1>  (456) 
N

>  <3A4>  (456) 
N

>  <Citation>  (456) 
Nucleic Acids Res. 2018. Jan 4;46(D1):D608-17. PMID:29140435
Nucleic Acids Res. 2018 Jan 4;46(D1):D1074-D1082. PMID:29126136
Nucleic Acids Res., 45:D380-388 (2017).  PMID:27924025
Nucleic Acids Res. 2016 Jan 4;44(D1):D1202-13. PMID:26400175

>  <ROMol>  (456) 
<rdkit.Chem.rdchem.Mol object at 0x7c2905d5da10>

>  <Drug_like>  (456) 
True

$$$$
2-Propylpyridine
     RDKit          2D

  9  9  0  0  0  0  0  0  0  0999 V2000
   -1.6698   -2.0608    0.0000 C   0  0  0  0  0  0  0  0  0  0  0  0
   -0.3708   -1.3106    0.0000 C   0  0  0  0  0  0  0  0  0  0  0  0
   -0.3711    0.1894    0.0000 C   0  0  0  0  0  0  0  0  0  0  0  0
    0.9278    0.9396    0.0000 C   0  0  0  0  0  0  0  0  0  0  0  0
    0.9278    2.4396    0.0000 C   0  0  0  0  0  0  0  0  0  0  0  0
    2.2278    3.1896    0.0000 C   0  0  0  0  0  0  0  0  0  0  0  0
    3.5278    2.4396    0.0000 C   0  0  0  0  0  0  0  0  0  0  0  0
    3.5278    0.9396    0.0000 C   0  0  0  0  0  0  0  0  0  0  0  0
    2.2278    0.1896    0.0000 N   0  0  0  0  0  0  0  0  0  0  0  0
  1  2  1  0
  2  3  1  0
  3  4  1  0
  4  5  2  0
  5  6  1  0
  6  7  2  0
  7  8  1  0
  8  9  2  0
  4  9  1  0
M  END
>  <cdk:Title>  (457) 
2-Propylpyridine

>  <1A2>  (457) 
N

>  <2A6>  (457) 
N

>  <2B6>  (457) 
N

>  <2C8>  (457) 
N

>  <2C9>  (457) 
N

>  <2C19>  (457) 
N

>  <2D6>  (457) 
N

>  <2E1>  (457) 
N

>  <3A4>  (457) 
N

>  <Citation>  (457) 
Nucleic Acids Res. 2018. Jan 4;46(D1):D608-17. PMID:29140435
Nucleic Acids Res. 2018 Jan 4;46(D1):D1074-D1082. PMID:29126136
Nucleic Acids Res., 45:D380-388 (2017).  PMID:27924025
Nucleic Acids Res. 2016 Jan 4;44(D1):D1202-13. PMID:26400175

>  <ROMol>  (457) 
<rdkit.Chem.rdchem.Mol object at 0x7c2905d5daf0>

>  <Drug_like>  (457) 
True

$$$$
Santalene (minor)
     RDKit          2D

 15 16  0  0  0  0  0  0  0  0999 V2000
   -7.4023   -4.4539    0.0000 C   0  0  0  0  0  0  0  0  0  0  0  0
   -7.9155   -3.0444    0.0000 C   0  0  0  0  0  0  0  0  0  0  0  0
   -9.3927   -2.7841    0.0000 C   0  0  0  0  0  0  0  0  0  0  0  0
   -6.9514   -1.8953    0.0000 C   0  0  0  0  0  0  0  0  0  0  0  0
   -5.4742   -2.1556    0.0000 C   0  0  0  0  0  0  0  0  0  0  0  0
   -4.2016   -0.6387    0.0000 C   0  0  0  0  0  0  0  0  0  0  0  0
   -1.7789   -1.0656    0.0000 C   0  0  0  0  0  0  0  0  0  0  0  0
   -2.2917   -2.4753    0.0000 C   0  0  0  0  0  0  0  0  0  0  0  0
   -1.7789    0.4344    0.0000 C   0  0  0  0  0  0  0  0  0  0  0  0
   -3.9092    1.6647    0.0000 C   0  0  0  0  0  0  0  0  0  0  0  0
   -0.4789    1.1844    0.0000 C   0  0  0  0  0  0  0  0  0  0  0  0
    0.8211    0.4344    0.0000 C   0  0  0  0  0  0  0  0  0  0  0  0
    0.8211   -1.0656    0.0000 C   0  0  0  0  0  0  0  0  0  0  0  0
   -0.4789   -1.8156    0.0000 C   0  0  0  0  0  0  0  0  0  0  0  0
    0.0711   -0.3156    0.0000 C   0  0  0  0  0  0  0  0  0  0  0  0
  1  2  1  0
  2  3  1  0
  2  4  2  0
  4  5  1  0
  5  6  1  0
  7  6  1  0
  7  8  1  6
  7  9  1  0
  9 10  2  0
  9 11  1  0
 11 12  1  0
 12 13  1  0
 13 14  1  0
  7 14  1  0
 14 15  1  0
 11 15  1  0
M  END
>  <cdk:Title>  (458) 
Santalene (minor)

>  <1A2>  (458) 
N

>  <2A6>  (458) 
N

>  <2B6>  (458) 
N

>  <2C8>  (458) 
N

>  <2C9>  (458) 
N

>  <2C19>  (458) 
N

>  <2D6>  (458) 
N

>  <2E1>  (458) 
N

>  <3A4>  (458) 
N

>  <Citation>  (458) 
Nucleic Acids Res. 2018. Jan 4;46(D1):D608-17. PMID:29140435
Nucleic Acids Res. 2018 Jan 4;46(D1):D1074-D1082. PMID:29126136
Nucleic Acids Res., 45:D380-388 (2017).  PMID:27924025
Nucleic Acids Res. 2016 Jan 4;44(D1):D1202-13. PMID:26400175

>  <ROMol>  (458) 
<rdkit.Chem.rdchem.Mol object at 0x7c2905d5db60>

>  <Drug_like>  (458) 
True

$$$$
Maleic acid
     RDKit          2D

  8  7  0  0  0  0  0  0  0  0999 V2000
    6.4952   -0.7500    0.0000 C   0  0  0  0  0  0  0  0  0  0  0  0
    5.1962   -0.0000    0.0000 C   0  0  0  0  0  0  0  0  0  0  0  0
    3.8971   -0.7500    0.0000 C   0  0  0  0  0  0  0  0  0  0  0  0
    3.8971   -2.2500    0.0000 C   0  0  0  0  0  0  0  0  0  0  0  0
    5.1962   -3.0000    0.0000 O   0  0  0  0  0  0  0  0  0  0  0  0
    2.5981   -3.0000    0.0000 O   0  0  0  0  0  0  0  0  0  0  0  0
    6.4952   -2.2500    0.0000 O   0  0  0  0  0  0  0  0  0  0  0  0
    7.7942   -0.0000    0.0000 O   0  0  0  0  0  0  0  0  0  0  0  0
  1  2  1  0
  2  3  2  0
  3  4  1  0
  4  5  2  0
  4  6  1  0
  1  7  2  0
  1  8  1  0
M  END
>  <cdk:Title>  (459) 
Maleic acid

>  <1A2>  (459) 
N

>  <2A6>  (459) 
N

>  <2B6>  (459) 
N

>  <2C8>  (459) 
N

>  <2C9>  (459) 
N

>  <2C19>  (459) 
N

>  <2D6>  (459) 
N

>  <2E1>  (459) 
N

>  <3A4>  (459) 
N

>  <Citation>  (459) 
Nucleic Acids Res. 2018. Jan 4;46(D1):D608-17. PMID:29140435
Nucleic Acids Res. 2018 Jan 4;46(D1):D1074-D1082. PMID:29126136
Nucleic Acids Res., 45:D380-388 (2017).  PMID:27924025
Nucleic Acids Res. 2016 Jan 4;44(D1):D1202-13. PMID:26400175

>  <ROMol>  (459) 
<rdkit.Chem.rdchem.Mol object at 0x7c2905d5dbd0>

>  <Drug_like>  (459) 
True

$$$$
Methyl thiophene-2-carboxylate
     RDKit          2D

  9  9  0  0  0  0  0  0  0  0999 V2000
   -2.1010   -0.6919    0.0000 C   0  0  0  0  0  0  0  0  0  0  0  0
   -0.6334   -0.3819    0.0000 O   0  0  0  0  0  0  0  0  0  0  0  0
    0.3689   -1.4978    0.0000 C   0  0  0  0  0  0  0  0  0  0  0  0
   -0.0964   -2.9238    0.0000 O   0  0  0  0  0  0  0  0  0  0  0  0
    1.8365   -1.1878    0.0000 C   0  0  0  0  0  0  0  0  0  0  0  0
    2.4444    0.1793    0.0000 S   0  0  0  0  0  0  0  0  0  0  0  0
    3.9323    0.0222    0.0000 C   0  0  0  0  0  0  0  0  0  0  0  0
    4.2489   -1.4462    0.0000 C   0  0  0  0  0  0  0  0  0  0  0  0
    2.9499   -2.1962    0.0000 C   0  0  0  0  0  0  0  0  0  0  0  0
  1  2  1  0
  2  3  1  0
  3  4  2  0
  3  5  1  0
  5  6  1  0
  6  7  1  0
  7  8  2  0
  8  9  1  0
  5  9  2  0
M  END
>  <cdk:Title>  (460) 
Methyl thiophene-2-carboxylate

>  <1A2>  (460) 
N

>  <2A6>  (460) 
N

>  <2B6>  (460) 
N

>  <2C8>  (460) 
N

>  <2C9>  (460) 
N

>  <2C19>  (460) 
N

>  <2D6>  (460) 
N

>  <2E1>  (460) 
N

>  <3A4>  (460) 
N

>  <Citation>  (460) 
Nucleic Acids Res. 2018. Jan 4;46(D1):D608-17. PMID:29140435
Nucleic Acids Res. 2018 Jan 4;46(D1):D1074-D1082. PMID:29126136
Nucleic Acids Res., 45:D380-388 (2017).  PMID:27924025
Nucleic Acids Res. 2016 Jan 4;44(D1):D1202-13. PMID:26400175

>  <ROMol>  (460) 
<rdkit.Chem.rdchem.Mol object at 0x7c2905d5dc40>

>  <Drug_like>  (460) 
True

$$$$
CGP71422
     RDKit          2D

 38 42  0  0  0  0  0  0  0  0999 V2000
   -1.1360    5.9869    0.0000 C   0  0  0  0  0  0  0  0  0  0  0  0
    0.1869    5.2798    0.0000 C   0  0  0  0  0  0  0  0  0  0  0  0
    0.2164    3.8309    0.0000 C   0  0  0  0  0  0  0  0  0  0  0  0
    1.4931    3.0822    0.0000 C   0  0  0  0  0  0  0  0  0  0  0  0
    2.7557    3.8891    0.0000 C   0  0  0  0  0  0  0  0  0  0  0  0
    2.7262    5.3379    0.0000 C   0  0  0  0  0  0  0  0  0  0  0  0
    1.4495    6.0866    0.0000 C   0  0  0  0  0  0  0  0  0  0  0  0
    4.0786    3.1819    0.0000 C   0  0  0  0  0  0  0  0  0  0  0  0
    4.1433    1.2030    0.0000 N   0  0  0  0  0  0  0  0  0  0  0  0
    5.4671    0.4959    0.0000 C   0  0  0  0  0  0  0  0  0  0  0  0
    5.5162   -1.0033    0.0000 C   0  0  0  0  0  0  0  0  0  0  0  0
    4.2414   -1.7954    0.0000 N   0  0  0  0  0  0  0  0  0  0  0  0
    2.9175   -1.0883    0.0000 C   0  0  0  0  0  0  0  0  0  0  0  0
    2.8685    0.4109    0.0000 C   0  0  0  0  0  0  0  0  0  0  0  0
    3.3154   -2.9755    0.0000 O   0  0  0  0  0  0  0  0  0  0  0  0
    6.2036   -3.9848    0.0000 C   0  0  0  0  0  0  0  0  0  0  0  0
   -2.4098    5.1948    0.0000 O   0  0  0  0  0  0  0  0  0  0  0  0
   -1.1850    7.4861    0.0000 N   0  0  0  0  0  0  0  0  0  0  0  0
   -2.5079    8.1932    0.0000 C   0  0  0  0  0  0  0  0  0  0  0  0
   -3.7825    7.4009    0.0000 C   0  0  0  0  0  0  0  0  0  0  0  0
   -5.1065    8.1078    0.0000 C   0  0  0  0  0  0  0  0  0  0  0  0
   -5.1557    9.6070    0.0000 C   0  0  0  0  0  0  0  0  0  0  0  0
   -3.8811   10.3993    0.0000 C   0  0  0  0  0  0  0  0  0  0  0  0
   -2.5571    9.6924    0.0000 C   0  0  0  0  0  0  0  0  0  0  0  0
   -6.4786   10.3141    0.0000 C   0  0  0  0  0  0  0  0  0  0  0  0
   -6.3800    7.3153    0.0000 N   0  0  0  0  0  0  0  0  0  0  0  0
   -7.7031    8.0220    0.0000 C   0  0  0  0  0  0  0  0  0  0  0  0
   -8.9775    7.2293    0.0000 N   0  0  0  0  0  0  0  0  0  0  0  0
  -10.3017    7.9358    0.0000 C   0  0  0  0  0  0  0  0  0  0  0  0
  -10.3515    9.4350    0.0000 C   0  0  0  0  0  0  0  0  0  0  0  0
   -9.0770   10.2277    0.0000 C   0  0  0  0  0  0  0  0  0  0  0  0
   -7.7529    9.5212    0.0000 N   0  0  0  0  0  0  0  0  0  0  0  0
  -11.5750    7.1429    0.0000 C   0  0  0  0  0  0  0  0  0  0  0  0
  -12.8984    7.8490    0.0000 C   0  0  0  0  0  0  0  0  0  0  0  0
  -14.1721    7.0550    0.0000 N   0  0  0  0  0  0  0  0  0  0  0  0
  -14.1223    5.5550    0.0000 C   0  0  0  0  0  0  0  0  0  0  0  0
  -12.7989    4.8490    0.0000 C   0  0  0  0  0  0  0  0  0  0  0  0
  -11.5252    5.6429    0.0000 C   0  0  0  0  0  0  0  0  0  0  0  0
  1  2  1  0
  2  3  2  0
  3  4  1  0
  4  5  2  0
  5  6  1  0
  6  7  2  0
  2  7  1  0
  5  8  1  0
  8  9  1  0
  9 10  1  0
 10 11  1  0
 11 12  1  0
 12 13  1  0
 13 14  1  0
  9 14  1  0
 12 15  1  0
 12 16  1  0
  1 17  2  0
  1 18  1  0
 18 19  1  0
 19 20  2  0
 20 21  1  0
 21 22  2  0
 22 23  1  0
 23 24  2  0
 19 24  1  0
 22 25  1  0
 21 26  1  0
 26 27  1  0
 27 28  2  0
 28 29  1  0
 29 30  2  0
 30 31  1  0
 31 32  2  0
 27 32  1  0
 29 33  1  0
 33 34  2  0
 34 35  1  0
 35 36  2  0
 36 37  1  0
 37 38  2  0
 33 38  1  0
M  CHG  2  12   1  15  -1
M  END
>  <cdk:Title>  (461) 
CGP71422

>  <1A2>  (461) 
N

>  <2A6>  (461) 
N

>  <2B6>  (461) 
N

>  <2C8>  (461) 
N

>  <2C9>  (461) 
N

>  <2C19>  (461) 
N

>  <2D6>  (461) 
N

>  <2E1>  (461) 
N

>  <3A4>  (461) 
N

>  <Citation>  (461) 
Nucleic Acids Res. 2018. Jan 4;46(D1):D608-17. PMID:29140435
Nucleic Acids Res. 2018 Jan 4;46(D1):D1074-D1082. PMID:29126136
Nucleic Acids Res., 45:D380-388 (2017).  PMID:27924025
Nucleic Acids Res. 2016 Jan 4;44(D1):D1202-13. PMID:26400175

>  <ROMol>  (461) 
<rdkit.Chem.rdchem.Mol object at 0x7c2905d5dcb0>

>  <Drug_like>  (461) 
True

$$$$
trans_ trans-3_5-Octadien-2-one
     RDKit          2D

  9  8  0  0  0  0  0  0  0  0999 V2000
    1.2990   -0.7500    0.0000 C   0  0  0  0  0  0  0  0  0  0  0  0
    2.5981    0.0000    0.0000 C   0  0  0  0  0  0  0  0  0  0  0  0
    3.8971   -0.7500    0.0000 C   0  0  0  0  0  0  0  0  0  0  0  0
    5.1962   -0.0000    0.0000 C   0  0  0  0  0  0  0  0  0  0  0  0
    6.4952   -0.7500    0.0000 C   0  0  0  0  0  0  0  0  0  0  0  0
    7.7942   -0.0000    0.0000 C   0  0  0  0  0  0  0  0  0  0  0  0
    9.0933   -0.7500    0.0000 C   0  0  0  0  0  0  0  0  0  0  0  0
   10.3923   -0.0000    0.0000 C   0  0  0  0  0  0  0  0  0  0  0  0
    9.0933   -2.2500    0.0000 O   0  0  0  0  0  0  0  0  0  0  0  0
  1  2  1  0
  2  3  1  0
  3  4  2  0
  4  5  1  0
  5  6  2  0
  6  7  1  0
  7  8  1  0
  7  9  2  0
M  END
>  <cdk:Title>  (462) 
trans_ trans-3_5-Octadien-2-one

>  <1A2>  (462) 
N

>  <2A6>  (462) 
N

>  <2B6>  (462) 
N

>  <2C8>  (462) 
N

>  <2C9>  (462) 
N

>  <2C19>  (462) 
N

>  <2D6>  (462) 
N

>  <2E1>  (462) 
N

>  <3A4>  (462) 
N

>  <Citation>  (462) 
Nucleic Acids Res. 2018. Jan 4;46(D1):D608-17. PMID:29140435
Nucleic Acids Res. 2018 Jan 4;46(D1):D1074-D1082. PMID:29126136
Nucleic Acids Res., 45:D380-388 (2017).  PMID:27924025
Nucleic Acids Res. 2016 Jan 4;44(D1):D1202-13. PMID:26400175

>  <ROMol>  (462) 
<rdkit.Chem.rdchem.Mol object at 0x7c2905d5dd20>

>  <Drug_like>  (462) 
True

$$$$
UNII-S68X88K6S1
     RDKit          2D

 14 14  0  0  0  0  0  0  0  0999 V2000
   -2.8333   -1.3802    0.0000 C   0  0  0  0  0  0  0  0  0  0  0  0
   -1.8692   -0.2310    0.0000 C   0  0  0  0  0  0  0  0  0  0  0  0
   -2.3824    1.1785    0.0000 C   0  0  0  0  0  0  0  0  0  0  0  0
    0.5534   -0.6579    0.0000 C   0  0  0  0  0  0  0  0  0  0  0  0
    1.8529   -1.4087    0.0000 C   0  0  0  0  0  0  0  0  0  0  0  0
    3.1520   -0.6587    0.0000 C   0  0  0  0  0  0  0  0  0  0  0  0
    3.1515    0.8421    0.0000 C   0  0  0  0  0  0  0  0  0  0  0  0
    6.0469    0.3319    0.0000 C   0  0  0  0  0  0  0  0  0  0  0  0
    1.8520    1.5929    0.0000 C   0  0  0  0  0  0  0  0  0  0  0  0
    0.5529    0.8429    0.0000 C   0  0  0  0  0  0  0  0  0  0  0  0
    2.8164    2.7418    0.0000 O   0  0  0  0  0  0  0  0  0  0  0  0
    2.3037    4.1514    0.0000 C   0  0  0  0  0  0  0  0  0  0  0  0
    3.2681    5.3003    0.0000 C   0  0  0  0  0  0  0  0  0  0  0  0
    0.8265    4.4122    0.0000 O   0  0  0  0  0  0  0  0  0  0  0  0
  1  2  2  0
  2  3  1  0
  2  4  1  0
  4  5  1  0
  5  6  1  0
  6  7  1  0
  7  8  1  0
  7  9  1  0
  9 10  1  0
  4 10  1  0
  9 11  1  0
 11 12  1  0
 12 13  1  0
 12 14  2  0
M  END
>  <cdk:Title>  (463) 
UNII-S68X88K6S1

>  <1A2>  (463) 
N

>  <2A6>  (463) 
N

>  <2B6>  (463) 
N

>  <2C8>  (463) 
N

>  <2C9>  (463) 
N

>  <2C19>  (463) 
N

>  <2D6>  (463) 
N

>  <2E1>  (463) 
N

>  <3A4>  (463) 
N

>  <Citation>  (463) 
Nucleic Acids Res. 2018. Jan 4;46(D1):D608-17. PMID:29140435
Nucleic Acids Res. 2018 Jan 4;46(D1):D1074-D1082. PMID:29126136
Nucleic Acids Res., 45:D380-388 (2017).  PMID:27924025
Nucleic Acids Res. 2016 Jan 4;44(D1):D1202-13. PMID:26400175

>  <ROMol>  (463) 
<rdkit.Chem.rdchem.Mol object at 0x7c2905d5df50>

>  <Drug_like>  (463) 
True

$$$$
1-Nitroheptane
     RDKit          2D

 10  9  0  0  0  0  0  0  0  0999 V2000
    1.1765    3.0402    0.0000 O   0  0  0  0  0  0  0  0  0  0  0  0
    1.9265    1.7412    0.0000 N   0  0  0  0  0  0  0  0  0  0  0  0
    1.1765    0.4421    0.0000 O   0  0  0  0  0  0  0  0  0  0  0  0
    3.4265    1.7412    0.0000 C   0  0  0  0  0  0  0  0  0  0  0  0
    4.1765    0.4421    0.0000 C   0  0  0  0  0  0  0  0  0  0  0  0
    6.1565    0.4421    0.0000 C   0  0  0  0  0  0  0  0  0  0  0  0
    7.1465   -1.2726    0.0000 C   0  0  0  0  0  0  0  0  0  0  0  0
    9.6065   -1.2726    0.0000 C   0  0  0  0  0  0  0  0  0  0  0  0
   10.3565   -2.5716    0.0000 C   0  0  0  0  0  0  0  0  0  0  0  0
   11.8565   -2.5716    0.0000 C   0  0  0  0  0  0  0  0  0  0  0  0
  1  2  1  0
  2  3  2  0
  2  4  1  0
  4  5  1  0
  5  6  1  0
  6  7  1  0
  7  8  1  0
  8  9  1  0
  9 10  1  0
M  CHG  1   2   1
M  END
>  <cdk:Title>  (464) 
1-Nitroheptane

>  <1A2>  (464) 
N

>  <2A6>  (464) 
N

>  <2B6>  (464) 
N

>  <2C8>  (464) 
N

>  <2C9>  (464) 
N

>  <2C19>  (464) 
N

>  <2D6>  (464) 
N

>  <2E1>  (464) 
N

>  <3A4>  (464) 
N

>  <Citation>  (464) 
Nucleic Acids Res. 2018. Jan 4;46(D1):D608-17. PMID:29140435
Nucleic Acids Res. 2018 Jan 4;46(D1):D1074-D1082. PMID:29126136
Nucleic Acids Res., 45:D380-388 (2017).  PMID:27924025
Nucleic Acids Res. 2016 Jan 4;44(D1):D1202-13. PMID:26400175

>  <ROMol>  (464) 
<rdkit.Chem.rdchem.Mol object at 0x7c2905d5dfc0>

>  <Drug_like>  (464) 
True

$$$$
5'-Hydroxypiroxicam
     RDKit          2D

 24 26  0  0  0  0  0  0  0  0999 V2000
    0.0000    0.7500    0.0000 C   0  0  0  0  0  0  0  0  0  0  0  0
   -1.3000    1.5000    0.0000 C   0  0  0  0  0  0  0  0  0  0  0  0
   -2.6000    0.7500    0.0000 C   0  0  0  0  0  0  0  0  0  0  0  0
   -2.6000   -0.7500    0.0000 C   0  0  0  0  0  0  0  0  0  0  0  0
   -1.3000   -1.5000    0.0000 C   0  0  0  0  0  0  0  0  0  0  0  0
    0.0000   -0.7500    0.0000 C   0  0  0  0  0  0  0  0  0  0  0  0
    1.3000   -1.5000    0.0000 S   0  0  0  0  0  0  0  0  0  0  0  0
    2.6000   -0.7500    0.0000 N   0  0  0  0  0  0  0  0  0  0  0  0
    2.6000    0.7500    0.0000 C   0  0  0  0  0  0  0  0  0  0  0  0
    1.3000    1.5000    0.0000 C   0  0  0  0  0  0  0  0  0  0  0  0
    1.3000    3.0000    0.0000 O   0  0  0  0  0  0  0  0  0  0  0  0
    3.8989    1.5002    0.0000 C   0  0  0  0  0  0  0  0  0  0  0  0
    5.1981    0.7504    0.0000 N   0  0  0  0  0  0  0  0  0  0  0  0
    6.4970    1.5006    0.0000 C   0  0  0  0  0  0  0  0  0  0  0  0
    6.4970    3.0006    0.0000 C   0  0  0  0  0  0  0  0  0  0  0  0
    7.7970    3.7506    0.0000 C   0  0  0  0  0  0  0  0  0  0  0  0
    9.0970    3.0006    0.0000 C   0  0  0  0  0  0  0  0  0  0  0  0
    9.0970    1.5006    0.0000 C   0  0  0  0  0  0  0  0  0  0  0  0
    7.7970    0.7506    0.0000 N   0  0  0  0  0  0  0  0  0  0  0  0
   10.3959    3.7508    0.0000 O   0  0  0  0  0  0  0  0  0  0  0  0
    3.8987    3.0002    0.0000 O   0  0  0  0  0  0  0  0  0  0  0  0
    3.8989   -1.5002    0.0000 C   0  0  0  0  0  0  0  0  0  0  0  0
    0.3359   -2.6492    0.0000 O   0  0  0  0  0  0  0  0  0  0  0  0
    2.2641   -2.6492    0.0000 O   0  0  0  0  0  0  0  0  0  0  0  0
  1  2  2  0
  2  3  1  0
  3  4  2  0
  4  5  1  0
  5  6  2  0
  1  6  1  0
  6  7  1  0
  7  8  1  0
  8  9  1  0
  9 10  2  0
  1 10  1  0
 10 11  1  0
  9 12  1  0
 12 13  1  0
 13 14  1  0
 14 15  2  0
 15 16  1  0
 16 17  2  0
 17 18  1  0
 18 19  2  0
 14 19  1  0
 17 20  1  0
 12 21  2  0
  8 22  1  0
  7 23  2  0
  7 24  2  0
M  END
>  <cdk:Title>  (465) 
5'-Hydroxypiroxicam

>  <1A2>  (465) 
N

>  <2A6>  (465) 
N

>  <2B6>  (465) 
N

>  <2C8>  (465) 
N

>  <2C9>  (465) 
N

>  <2C19>  (465) 
N

>  <2D6>  (465) 
N

>  <2E1>  (465) 
N

>  <3A4>  (465) 
N

>  <Citation>  (465) 
Nucleic Acids Res. 2018. Jan 4;46(D1):D608-17. PMID:29140435
Nucleic Acids Res. 2018 Jan 4;46(D1):D1074-D1082. PMID:29126136
Nucleic Acids Res., 45:D380-388 (2017).  PMID:27924025
Nucleic Acids Res. 2016 Jan 4;44(D1):D1202-13. PMID:26400175

>  <ROMol>  (465) 
<rdkit.Chem.rdchem.Mol object at 0x7c2905d5e1f0>

>  <Drug_like>  (465) 
True

$$$$
Beta-D-Glucose
     RDKit          2D

 12 12  0  0  0  0  0  0  0  0999 V2000
    2.7878    0.7629    0.0000 O   0  0  0  0  0  0  0  0  0  0  0  0
    1.3100    1.0200    0.0000 C   0  0  0  0  0  0  0  0  0  0  0  0
    1.3100   -0.4700    0.0000 C   0  0  0  0  0  0  0  0  0  0  0  0
    1.8219   -1.8799    0.0000 O   0  0  0  0  0  0  0  0  0  0  0  0
   -0.0100   -1.2300    0.0000 C   0  0  0  0  0  0  0  0  0  0  0  0
   -0.9788   -2.3752    0.0000 O   0  0  0  0  0  0  0  0  0  0  0  0
   -1.3100   -0.4700    0.0000 C   0  0  0  0  0  0  0  0  0  0  0  0
   -2.7867   -0.2069    0.0000 O   0  0  0  0  0  0  0  0  0  0  0  0
   -1.3100    1.0200    0.0000 C   0  0  0  0  0  0  0  0  0  0  0  0
   -0.0100    1.7700    0.0000 O   0  0  0  0  0  0  0  0  0  0  0  0
   -1.8227    2.4296    0.0000 C   0  0  0  0  0  0  0  0  0  0  0  0
   -3.2999    2.6904    0.0000 O   0  0  0  0  0  0  0  0  0  0  0  0
  1  2  1  0
  2  3  1  0
  3  4  1  0
  3  5  1  0
  5  6  1  0
  5  7  1  0
  7  8  1  0
  7  9  1  0
  9 10  1  0
  2 10  1  0
  9 11  1  0
 11 12  1  0
M  END
>  <cdk:Title>  (466) 
Beta-D-Glucose

>  <1A2>  (466) 
N

>  <2A6>  (466) 
N

>  <2B6>  (466) 
N

>  <2C8>  (466) 
N

>  <2C9>  (466) 
N

>  <2C19>  (466) 
N

>  <2D6>  (466) 
N

>  <2E1>  (466) 
N

>  <3A4>  (466) 
N

>  <Citation>  (466) 
Nucleic Acids Res. 2018. Jan 4;46(D1):D608-17. PMID:29140435
Nucleic Acids Res. 2018 Jan 4;46(D1):D1074-D1082. PMID:29126136
Nucleic Acids Res., 45:D380-388 (2017).  PMID:27924025
Nucleic Acids Res. 2016 Jan 4;44(D1):D1202-13. PMID:26400175

>  <ROMol>  (466) 
<rdkit.Chem.rdchem.Mol object at 0x7c2905d5e260>

>  <Drug_like>  (466) 
True

$$$$
191666-22-5
     RDKit          2D

 15 16  0  0  0  0  0  0  0  0999 V2000
    0.8605    5.9366    0.0000 C   0  0  0  0  0  0  0  0  0  0  0  0
    0.8610    4.4357    0.0000 C   0  0  0  0  0  0  0  0  0  0  0  0
    2.1605    3.6849    0.0000 C   0  0  0  0  0  0  0  0  0  0  0  0
    3.4595    4.4349    0.0000 C   0  0  0  0  0  0  0  0  0  0  0  0
    3.4590    5.9357    0.0000 C   0  0  0  0  0  0  0  0  0  0  0  0
    2.1595    6.6866    0.0000 C   0  0  0  0  0  0  0  0  0  0  0  0
    4.7581    6.6857    0.0000 O   0  0  0  0  0  0  0  0  0  0  0  0
    4.7587    3.6851    0.0000 O   0  0  0  0  0  0  0  0  0  0  0  0
   -0.4381    3.6857    0.0000 C   0  0  0  0  0  0  0  0  0  0  0  0
   -2.9842    5.1557    0.0000 C   0  0  0  0  0  0  0  0  0  0  0  0
   -4.0952    6.1635    0.0000 O   0  0  0  0  0  0  0  0  0  0  0  0
   -5.3900    5.4208    0.0000 C   0  0  0  0  0  0  0  0  0  0  0  0
   -5.0917    3.9486    0.0000 C   0  0  0  0  0  0  0  0  0  0  0  0
   -3.5901    3.7882    0.0000 C   0  0  0  0  0  0  0  0  0  0  0  0
   -6.7565    6.0393    0.0000 O   0  0  0  0  0  0  0  0  0  0  0  0
  1  2  2  0
  2  3  1  0
  3  4  2  0
  4  5  1  0
  5  6  2  0
  1  6  1  0
  5  7  1  0
  4  8  1  0
  2  9  1  0
  9 10  1  0
 10 11  1  0
 11 12  1  0
 12 13  1  0
 13 14  1  0
 10 14  1  0
 12 15  2  0
M  END
>  <cdk:Title>  (467) 
191666-22-5

>  <1A2>  (467) 
N

>  <2A6>  (467) 
N

>  <2B6>  (467) 
N

>  <2C8>  (467) 
N

>  <2C9>  (467) 
N

>  <2C19>  (467) 
N

>  <2D6>  (467) 
N

>  <2E1>  (467) 
N

>  <3A4>  (467) 
N

>  <Citation>  (467) 
Nucleic Acids Res. 2018. Jan 4;46(D1):D608-17. PMID:29140435
Nucleic Acids Res. 2018 Jan 4;46(D1):D1074-D1082. PMID:29126136
Nucleic Acids Res., 45:D380-388 (2017).  PMID:27924025
Nucleic Acids Res. 2016 Jan 4;44(D1):D1202-13. PMID:26400175

>  <ROMol>  (467) 
<rdkit.Chem.rdchem.Mol object at 0x7c2905d5e2d0>

>  <Drug_like>  (467) 
True

$$$$
Methyl butyrate
     RDKit          2D

  7  6  0  0  0  0  0  0  0  0999 V2000
    7.7942   -0.0000    0.0000 C   0  0  0  0  0  0  0  0  0  0  0  0
    6.4952   -0.7500    0.0000 C   0  0  0  0  0  0  0  0  0  0  0  0
    5.1962   -0.0000    0.0000 C   0  0  0  0  0  0  0  0  0  0  0  0
    3.8971   -0.7500    0.0000 C   0  0  0  0  0  0  0  0  0  0  0  0
    2.5981   -0.0000    0.0000 O   0  0  0  0  0  0  0  0  0  0  0  0
    1.2990   -0.7500    0.0000 C   0  0  0  0  0  0  0  0  0  0  0  0
    3.8971   -2.2500    0.0000 O   0  0  0  0  0  0  0  0  0  0  0  0
  1  2  1  0
  2  3  1  0
  3  4  1  0
  4  5  1  0
  5  6  1  0
  4  7  2  0
M  END
>  <cdk:Title>  (468) 
Methyl butyrate

>  <1A2>  (468) 
N

>  <2A6>  (468) 
N

>  <2B6>  (468) 
N

>  <2C8>  (468) 
N

>  <2C9>  (468) 
N

>  <2C19>  (468) 
N

>  <2D6>  (468) 
N

>  <2E1>  (468) 
N

>  <3A4>  (468) 
N

>  <Citation>  (468) 
Nucleic Acids Res. 2018. Jan 4;46(D1):D608-17. PMID:29140435
Nucleic Acids Res. 2018 Jan 4;46(D1):D1074-D1082. PMID:29126136
Nucleic Acids Res., 45:D380-388 (2017).  PMID:27924025
Nucleic Acids Res. 2016 Jan 4;44(D1):D1202-13. PMID:26400175

>  <ROMol>  (468) 
<rdkit.Chem.rdchem.Mol object at 0x7c2905d5e340>

>  <Drug_like>  (468) 
True

$$$$
(3's_5'r)-5'-Hydroxythalidomide
     RDKit          2D

 20 22  0  0  0  0  0  0  0  0999 V2000
    5.0807   -1.9898    0.0000 O   0  0  0  0  0  0  0  0  0  0  0  0
    4.8196   -0.5127    0.0000 C   0  0  0  0  0  0  0  0  0  0  0  0
    5.9688    0.4526    0.0000 N   0  0  0  0  0  0  0  0  0  0  0  0
    5.7084    1.9307    0.0000 C   0  0  0  0  0  0  0  0  0  0  0  0
    6.8574    2.8949    0.0000 O   0  0  0  0  0  0  0  0  0  0  0  0
    4.2987    2.4434    0.0000 C   0  0  0  0  0  0  0  0  0  0  0  0
    3.1495    1.4781    0.0000 C   0  0  0  0  0  0  0  0  0  0  0  0
    3.4100   -0.0000    0.0000 C   0  0  0  0  0  0  0  0  0  0  0  0
    1.9100    0.0000    0.0000 N   0  0  0  0  0  0  0  0  0  0  0  0
    1.0300    1.2100    0.0000 C   0  0  0  0  0  0  0  0  0  0  0  0
    1.4953    2.6360    0.0000 O   0  0  0  0  0  0  0  0  0  0  0  0
   -0.4000    0.7500    0.0000 C   0  0  0  0  0  0  0  0  0  0  0  0
   -0.4000   -0.7500    0.0000 C   0  0  0  0  0  0  0  0  0  0  0  0
    1.0300   -1.2100    0.0000 C   0  0  0  0  0  0  0  0  0  0  0  0
    1.4953   -2.6360    0.0000 O   0  0  0  0  0  0  0  0  0  0  0  0
   -1.7000   -1.5000    0.0000 C   0  0  0  0  0  0  0  0  0  0  0  0
   -3.0000   -0.7500    0.0000 C   0  0  0  0  0  0  0  0  0  0  0  0
   -3.0000    0.7500    0.0000 C   0  0  0  0  0  0  0  0  0  0  0  0
   -1.7000    1.5000    0.0000 C   0  0  0  0  0  0  0  0  0  0  0  0
    5.0483    3.7427    0.0000 O   0  0  0  0  0  0  0  0  0  0  0  0
  1  2  2  0
  2  3  1  0
  3  4  1  0
  4  5  2  0
  4  6  1  0
  6  7  1  0
  7  8  1  0
  2  8  1  0
  8  9  1  0
  9 10  1  0
 10 11  2  0
 10 12  1  0
 12 13  2  0
 13 14  1  0
  9 14  1  0
 14 15  2  0
 13 16  1  0
 16 17  2  0
 17 18  1  0
 18 19  2  0
 12 19  1  0
  6 20  1  0
M  END
>  <cdk:Title>  (469) 
(3's_5'r)-5'-Hydroxythalidomide

>  <1A2>  (469) 
N

>  <2A6>  (469) 
N

>  <2B6>  (469) 
N

>  <2C8>  (469) 
N

>  <2C9>  (469) 
N

>  <2C19>  (469) 
N

>  <2D6>  (469) 
N

>  <2E1>  (469) 
N

>  <3A4>  (469) 
N

>  <Citation>  (469) 
Nucleic Acids Res. 2018. Jan 4;46(D1):D608-17. PMID:29140435
Nucleic Acids Res. 2018 Jan 4;46(D1):D1074-D1082. PMID:29126136
Nucleic Acids Res., 45:D380-388 (2017).  PMID:27924025
Nucleic Acids Res. 2016 Jan 4;44(D1):D1202-13. PMID:26400175

>  <ROMol>  (469) 
<rdkit.Chem.rdchem.Mol object at 0x7c2905d5e420>

>  <Drug_like>  (469) 
True

$$$$
cis_cis-Muconic acid
     RDKit          2D

 10  9  0  0  0  0  0  0  0  0999 V2000
    2.5981   -3.0000    0.0000 O   0  0  0  0  0  0  0  0  0  0  0  0
    3.8971   -2.2500    0.0000 C   0  0  0  0  0  0  0  0  0  0  0  0
    3.8971   -0.7500    0.0000 O   0  0  0  0  0  0  0  0  0  0  0  0
    5.1962   -3.0000    0.0000 C   0  0  0  0  0  0  0  0  0  0  0  0
    6.4952   -2.2500    0.0000 C   0  0  0  0  0  0  0  0  0  0  0  0
    6.4952   -0.7500    0.0000 C   0  0  0  0  0  0  0  0  0  0  0  0
    7.7942   -0.0000    0.0000 C   0  0  0  0  0  0  0  0  0  0  0  0
    9.0933   -0.7500    0.0000 C   0  0  0  0  0  0  0  0  0  0  0  0
   10.3923   -0.0000    0.0000 O   0  0  0  0  0  0  0  0  0  0  0  0
    9.0933   -2.2500    0.0000 O   0  0  0  0  0  0  0  0  0  0  0  0
  1  2  1  0
  2  3  2  0
  2  4  1  0
  4  5  2  0
  5  6  1  0
  6  7  2  0
  7  8  1  0
  8  9  1  0
  8 10  2  0
M  END
>  <cdk:Title>  (470) 
cis_cis-Muconic acid

>  <1A2>  (470) 
N

>  <2A6>  (470) 
N

>  <2B6>  (470) 
N

>  <2C8>  (470) 
N

>  <2C9>  (470) 
N

>  <2C19>  (470) 
N

>  <2D6>  (470) 
N

>  <2E1>  (470) 
N

>  <3A4>  (470) 
N

>  <Citation>  (470) 
Nucleic Acids Res. 2018. Jan 4;46(D1):D608-17. PMID:29140435
Nucleic Acids Res. 2018 Jan 4;46(D1):D1074-D1082. PMID:29126136
Nucleic Acids Res., 45:D380-388 (2017).  PMID:27924025
Nucleic Acids Res. 2016 Jan 4;44(D1):D1202-13. PMID:26400175

>  <ROMol>  (470) 
<rdkit.Chem.rdchem.Mol object at 0x7c2905d5e490>

>  <Drug_like>  (470) 
True

$$$$
Byzantionoside b
     RDKit          2D

 26 27  0  0  0  0  0  0  0  0999 V2000
    2.9623   10.3912    0.0000 C   0  0  0  0  0  0  0  0  0  0  0  0
    1.4852   10.1302    0.0000 C   0  0  0  0  0  0  0  0  0  0  0  0
    0.5199   11.2794    0.0000 C   0  0  0  0  0  0  0  0  0  0  0  0
   -0.9488   11.0155    0.0000 C   0  0  0  0  0  0  0  0  0  0  0  0
   -1.4615    9.6059    0.0000 C   0  0  0  0  0  0  0  0  0  0  0  0
   -0.5056    8.4601    0.0000 C   0  0  0  0  0  0  0  0  0  0  0  0
   -1.0190    5.5653    0.0000 C   0  0  0  0  0  0  0  0  0  0  0  0
   -3.0545    6.9950    0.0000 C   0  0  0  0  0  0  0  0  0  0  0  0
    0.9725    8.7205    0.0000 C   0  0  0  0  0  0  0  0  0  0  0  0
    3.7353    7.7153    0.0000 C   0  0  0  0  0  0  0  0  0  0  0  0
    4.0793    5.7654    0.0000 C   0  0  0  0  0  0  0  0  0  0  0  0
    5.9400    5.0884    0.0000 C   0  0  0  0  0  0  0  0  0  0  0  0
    7.4400    5.0886    0.0000 C   0  0  0  0  0  0  0  0  0  0  0  0
    6.2840    3.1385    0.0000 O   0  0  0  0  0  0  0  0  0  0  0  0
    9.0468    2.1333    0.0000 C   0  0  0  0  0  0  0  0  0  0  0  0
    8.3049    0.8411    0.0000 C   0  0  0  0  0  0  0  0  0  0  0  0
    9.0712   -0.4752    0.0000 C   0  0  0  0  0  0  0  0  0  0  0  0
   10.5771   -0.4634    0.0000 C   0  0  0  0  0  0  0  0  0  0  0  0
   11.3189    0.8288    0.0000 C   0  0  0  0  0  0  0  0  0  0  0  0
   12.4655    1.7960    0.0000 C   0  0  0  0  0  0  0  0  0  0  0  0
   13.8764    1.2866    0.0000 O   0  0  0  0  0  0  0  0  0  0  0  0
   10.5650    2.1265    0.0000 O   0  0  0  0  0  0  0  0  0  0  0  0
   11.9887   -0.9705    0.0000 O   0  0  0  0  0  0  0  0  0  0  0  0
    9.3412   -1.9507    0.0000 O   0  0  0  0  0  0  0  0  0  0  0  0
    7.1590   -0.1267    0.0000 O   0  0  0  0  0  0  0  0  0  0  0  0
   -1.9150   12.1629    0.0000 O   0  0  0  0  0  0  0  0  0  0  0  0
  1  2  1  0
  2  3  2  0
  3  4  1  0
  4  5  1  0
  5  6  1  0
  6  7  1  0
  6  8  1  0
  6  9  1  0
  2  9  1  0
  9 10  1  0
 10 11  1  0
 11 12  1  0
 12 13  1  0
 12 14  1  0
 14 15  1  0
 15 16  1  0
 16 17  1  0
 17 18  1  0
 18 19  1  0
 19 20  1  0
 20 21  1  0
 19 22  1  0
 15 22  1  0
 18 23  1  0
 17 24  1  0
 16 25  1  0
  4 26  2  0
M  END
>  <cdk:Title>  (471) 
Byzantionoside b

>  <1A2>  (471) 
N

>  <2A6>  (471) 
N

>  <2B6>  (471) 
N

>  <2C8>  (471) 
N

>  <2C9>  (471) 
N

>  <2C19>  (471) 
N

>  <2D6>  (471) 
N

>  <2E1>  (471) 
N

>  <3A4>  (471) 
N

>  <Citation>  (471) 
Nucleic Acids Res. 2018. Jan 4;46(D1):D608-17. PMID:29140435
Nucleic Acids Res. 2018 Jan 4;46(D1):D1074-D1082. PMID:29126136
Nucleic Acids Res., 45:D380-388 (2017).  PMID:27924025
Nucleic Acids Res. 2016 Jan 4;44(D1):D1202-13. PMID:26400175

>  <ROMol>  (471) 
<rdkit.Chem.rdchem.Mol object at 0x7c2905d5e500>

>  <Drug_like>  (471) 
True

$$$$
2_2_9-Trimethyldecane
     RDKit          2D

 13 12  0  0  0  0  0  0  0  0999 V2000
   -1.4878   -4.2361    0.0000 C   0  0  0  0  0  0  0  0  0  0  0  0
   -0.8106   -6.0967    0.0000 C   0  0  0  0  0  0  0  0  0  0  0  0
   -0.8106   -7.5967    0.0000 C   0  0  0  0  0  0  0  0  0  0  0  0
    0.4884   -5.3467    0.0000 C   0  0  0  0  0  0  0  0  0  0  0  0
    1.7875   -6.0967    0.0000 C   0  0  0  0  0  0  0  0  0  0  0  0
    3.9179   -4.8667    0.0000 C   0  0  0  0  0  0  0  0  0  0  0  0
    5.2169   -5.6167    0.0000 C   0  0  0  0  0  0  0  0  0  0  0  0
    7.3473   -4.3867    0.0000 C   0  0  0  0  0  0  0  0  0  0  0  0
    9.0621   -5.3767    0.0000 C   0  0  0  0  0  0  0  0  0  0  0  0
   11.1925   -4.1467    0.0000 C   0  0  0  0  0  0  0  0  0  0  0  0
   12.4915   -4.8967    0.0000 C   0  0  0  0  0  0  0  0  0  0  0  0
    9.9198   -2.6299    0.0000 C   0  0  0  0  0  0  0  0  0  0  0  0
   12.1567   -2.9976    0.0000 C   0  0  0  0  0  0  0  0  0  0  0  0
  1  2  1  0
  2  3  1  0
  2  4  1  0
  4  5  1  0
  5  6  1  0
  6  7  1  0
  7  8  1  0
  8  9  1  0
  9 10  1  0
 10 11  1  0
 10 12  1  0
 10 13  1  0
M  END
>  <cdk:Title>  (472) 
2_2_9-Trimethyldecane

>  <1A2>  (472) 
N

>  <2A6>  (472) 
N

>  <2B6>  (472) 
N

>  <2C8>  (472) 
N

>  <2C9>  (472) 
N

>  <2C19>  (472) 
N

>  <2D6>  (472) 
N

>  <2E1>  (472) 
N

>  <3A4>  (472) 
N

>  <Citation>  (472) 
Nucleic Acids Res. 2018. Jan 4;46(D1):D608-17. PMID:29140435
Nucleic Acids Res. 2018 Jan 4;46(D1):D1074-D1082. PMID:29126136
Nucleic Acids Res., 45:D380-388 (2017).  PMID:27924025
Nucleic Acids Res. 2016 Jan 4;44(D1):D1202-13. PMID:26400175

>  <ROMol>  (472) 
<rdkit.Chem.rdchem.Mol object at 0x7c2905d5e5e0>

>  <Drug_like>  (472) 
True

$$$$
cis-beta-Terpineol
     RDKit          2D

 11 11  0  0  0  0  0  0  0  0999 V2000
   -1.1984   -1.7003    0.0000 C   0  0  0  0  0  0  0  0  0  0  0  0
   -1.1979   -0.1995    0.0000 C   0  0  0  0  0  0  0  0  0  0  0  0
    0.1016    0.5513    0.0000 C   0  0  0  0  0  0  0  0  0  0  0  0
    1.4007   -0.1987    0.0000 C   0  0  0  0  0  0  0  0  0  0  0  0
    1.4002   -1.6995    0.0000 C   0  0  0  0  0  0  0  0  0  0  0  0
    0.1007   -2.4503    0.0000 C   0  0  0  0  0  0  0  0  0  0  0  0
    3.8232   -0.6264    0.0000 C   0  0  0  0  0  0  0  0  0  0  0  0
    4.7876    0.5225    0.0000 C   0  0  0  0  0  0  0  0  0  0  0  0
    4.3359   -2.0360    0.0000 C   0  0  0  0  0  0  0  0  0  0  0  0
   -4.0936   -1.1892    0.0000 C   0  0  0  0  0  0  0  0  0  0  0  0
   -1.7116   -3.1098    0.0000 O   0  0  0  0  0  0  0  0  0  0  0  0
  1  2  1  0
  2  3  1  0
  3  4  1  0
  4  5  1  0
  5  6  1  0
  1  6  1  0
  4  7  1  0
  7  8  2  0
  7  9  1  0
  1 10  1  0
  1 11  1  0
M  END
>  <cdk:Title>  (473) 
cis-beta-Terpineol

>  <1A2>  (473) 
N

>  <2A6>  (473) 
N

>  <2B6>  (473) 
N

>  <2C8>  (473) 
N

>  <2C9>  (473) 
N

>  <2C19>  (473) 
N

>  <2D6>  (473) 
N

>  <2E1>  (473) 
N

>  <3A4>  (473) 
N

>  <Citation>  (473) 
Nucleic Acids Res. 2018. Jan 4;46(D1):D608-17. PMID:29140435
Nucleic Acids Res. 2018 Jan 4;46(D1):D1074-D1082. PMID:29126136
Nucleic Acids Res., 45:D380-388 (2017).  PMID:27924025
Nucleic Acids Res. 2016 Jan 4;44(D1):D1202-13. PMID:26400175

>  <ROMol>  (473) 
<rdkit.Chem.rdchem.Mol object at 0x7c2905d5e650>

>  <Drug_like>  (473) 
True

$$$$
Pyrrole-2-carboxylate
     RDKit          2D

  8  8  0  0  0  0  0  0  0  0999 V2000
   -2.1931    2.1243    0.0000 O   0  0  0  0  0  0  0  0  0  0  0  0
   -0.6931    2.1243    0.0000 C   0  0  0  0  0  0  0  0  0  0  0  0
    0.0569    3.4233    0.0000 O   0  0  0  0  0  0  0  0  0  0  0  0
    0.0569    0.8253    0.0000 C   0  0  0  0  0  0  0  0  0  0  0  0
    1.5448    0.6682    0.0000 N   0  0  0  0  0  0  0  0  0  0  0  0
    1.8615   -0.8003    0.0000 C   0  0  0  0  0  0  0  0  0  0  0  0
    0.5624   -1.5503    0.0000 C   0  0  0  0  0  0  0  0  0  0  0  0
   -0.5509   -0.5418    0.0000 C   0  0  0  0  0  0  0  0  0  0  0  0
  1  2  1  0
  2  3  2  0
  2  4  1  0
  4  5  1  0
  5  6  1  0
  6  7  2  0
  7  8  1  0
  4  8  2  0
M  END
>  <cdk:Title>  (474) 
Pyrrole-2-carboxylate

>  <1A2>  (474) 
N

>  <2A6>  (474) 
N

>  <2B6>  (474) 
N

>  <2C8>  (474) 
N

>  <2C9>  (474) 
N

>  <2C19>  (474) 
N

>  <2D6>  (474) 
N

>  <2E1>  (474) 
N

>  <3A4>  (474) 
N

>  <Citation>  (474) 
Nucleic Acids Res. 2018. Jan 4;46(D1):D608-17. PMID:29140435
Nucleic Acids Res. 2018 Jan 4;46(D1):D1074-D1082. PMID:29126136
Nucleic Acids Res., 45:D380-388 (2017).  PMID:27924025
Nucleic Acids Res. 2016 Jan 4;44(D1):D1202-13. PMID:26400175

>  <ROMol>  (474) 
<rdkit.Chem.rdchem.Mol object at 0x7c2905d5e6c0>

>  <Drug_like>  (474) 
True

$$$$
ZINC31475165
     RDKit          2D

 16 17  0  0  0  0  0  0  0  0999 V2000
    1.0810    0.1548    0.0000 C   0  0  0  0  0  0  0  0  0  0  0  0
   -0.2180   -0.5952    0.0000 C   0  0  0  0  0  0  0  0  0  0  0  0
   -1.1822   -1.7442    0.0000 C   0  0  0  0  0  0  0  0  0  0  0  0
   -1.0594    1.7165    0.0000 C   0  0  0  0  0  0  0  0  0  0  0  0
   -1.0594    3.2165    0.0000 C   0  0  0  0  0  0  0  0  0  0  0  0
   -2.3584    3.9665    0.0000 C   0  0  0  0  0  0  0  0  0  0  0  0
   -3.6575    3.2165    0.0000 C   0  0  0  0  0  0  0  0  0  0  0  0
   -4.6630    5.9792    0.0000 C   0  0  0  0  0  0  0  0  0  0  0  0
   -3.6575    1.7165    0.0000 C   0  0  0  0  0  0  0  0  0  0  0  0
   -2.3584    0.9665    0.0000 C   0  0  0  0  0  0  0  0  0  0  0  0
   -1.1449    0.0848    0.0000 O   0  0  0  0  0  0  0  0  0  0  0  0
   -1.6084   -1.3418    0.0000 C   0  0  0  0  0  0  0  0  0  0  0  0
   -3.1084   -1.3418    0.0000 C   0  0  0  0  0  0  0  0  0  0  0  0
   -4.5757   -1.6537    0.0000 C   0  0  0  0  0  0  0  0  0  0  0  0
   -5.5794   -0.5390    0.0000 O   0  0  0  0  0  0  0  0  0  0  0  0
   -3.5720    0.0848    0.0000 O   0  0  0  0  0  0  0  0  0  0  0  0
  1  2  1  0
  2  3  1  0
  2  4  1  0
  4  5  1  0
  5  6  1  0
  6  7  1  0
  7  8  1  0
  7  9  1  0
 10  9  1  6
  4 10  1  0
 10 11  1  0
 11 12  1  0
 12 13  1  0
 13 14  1  0
 14 15  1  0
 13 16  1  0
 10 16  1  0
M  END
>  <cdk:Title>  (475) 
ZINC31475165

>  <1A2>  (475) 
N

>  <2A6>  (475) 
N

>  <2B6>  (475) 
N

>  <2C8>  (475) 
N

>  <2C9>  (475) 
N

>  <2C19>  (475) 
N

>  <2D6>  (475) 
N

>  <2E1>  (475) 
N

>  <3A4>  (475) 
N

>  <Citation>  (475) 
Nucleic Acids Res. 2018. Jan 4;46(D1):D608-17. PMID:29140435
Nucleic Acids Res. 2018 Jan 4;46(D1):D1074-D1082. PMID:29126136
Nucleic Acids Res., 45:D380-388 (2017).  PMID:27924025
Nucleic Acids Res. 2016 Jan 4;44(D1):D1202-13. PMID:26400175

>  <ROMol>  (475) 
<rdkit.Chem.rdchem.Mol object at 0x7c2905d5e730>

>  <Drug_like>  (475) 
True

$$$$
(e)-2-Octenoic acid
     RDKit          2D

 10  9  0  0  0  0  0  0  0  0999 V2000
   11.6913   -0.7500    0.0000 O   0  0  0  0  0  0  0  0  0  0  0  0
   10.3923   -0.0000    0.0000 C   0  0  0  0  0  0  0  0  0  0  0  0
   10.3923    1.5000    0.0000 O   0  0  0  0  0  0  0  0  0  0  0  0
    9.0933   -0.7500    0.0000 C   0  0  0  0  0  0  0  0  0  0  0  0
    7.7942   -0.0000    0.0000 C   0  0  0  0  0  0  0  0  0  0  0  0
    7.7942    1.5000    0.0000 C   0  0  0  0  0  0  0  0  0  0  0  0
    6.4952    2.2500    0.0000 C   0  0  0  0  0  0  0  0  0  0  0  0
    6.4952    4.7100    0.0000 C   0  0  0  0  0  0  0  0  0  0  0  0
    5.1962    5.4600    0.0000 C   0  0  0  0  0  0  0  0  0  0  0  0
    5.1962    6.9600    0.0000 C   0  0  0  0  0  0  0  0  0  0  0  0
  1  2  1  0
  2  3  2  0
  2  4  1  0
  4  5  2  0
  5  6  1  0
  6  7  1  0
  7  8  1  0
  8  9  1  0
  9 10  1  0
M  END
>  <cdk:Title>  (476) 
(e)-2-Octenoic acid

>  <1A2>  (476) 
N

>  <2A6>  (476) 
N

>  <2B6>  (476) 
N

>  <2C8>  (476) 
N

>  <2C9>  (476) 
N

>  <2C19>  (476) 
N

>  <2D6>  (476) 
N

>  <2E1>  (476) 
N

>  <3A4>  (476) 
N

>  <Citation>  (476) 
Nucleic Acids Res. 2018. Jan 4;46(D1):D608-17. PMID:29140435
Nucleic Acids Res. 2018 Jan 4;46(D1):D1074-D1082. PMID:29126136
Nucleic Acids Res., 45:D380-388 (2017).  PMID:27924025
Nucleic Acids Res. 2016 Jan 4;44(D1):D1202-13. PMID:26400175

>  <ROMol>  (476) 
<rdkit.Chem.rdchem.Mol object at 0x7c2905d5e810>

>  <Drug_like>  (476) 
True

$$$$
(+)-Galeon
     RDKit          2D

 24 26  0  0  0  0  0  0  0  0999 V2000
   -3.7333    5.1755    0.0000 C   0  0  0  0  0  0  0  0  0  0  0  0
   -2.4333    5.9255    0.0000 C   0  0  0  0  0  0  0  0  0  0  0  0
   -1.1333    5.1755    0.0000 C   0  0  0  0  0  0  0  0  0  0  0  0
    0.1667    5.9255    0.0000 O   0  0  0  0  0  0  0  0  0  0  0  0
    1.4667    5.1755    0.0000 C   0  0  0  0  0  0  0  0  0  0  0  0
    2.7655    5.9255    0.0000 C   0  0  0  0  0  0  0  0  0  0  0  0
    4.0645    5.1759    0.0000 C   0  0  0  0  0  0  0  0  0  0  0  0
    4.0651    3.6761    0.0000 C   0  0  0  0  0  0  0  0  0  0  0  0
    2.7667    2.9255    0.0000 C   0  0  0  0  0  0  0  0  0  0  0  0
    2.7667    1.4255    0.0000 C   0  0  0  0  0  0  0  0  0  0  0  0
    1.4667    0.6755    0.0000 C   0  0  0  0  0  0  0  0  0  0  0  0
    0.1667    1.4255    0.0000 C   0  0  0  0  0  0  0  0  0  0  0  0
   -1.1333    0.6755    0.0000 C   0  0  0  0  0  0  0  0  0  0  0  0
   -2.4333    1.4255    0.0000 C   0  0  0  0  0  0  0  0  0  0  0  0
   -5.0333    1.4255    0.0000 C   0  0  0  0  0  0  0  0  0  0  0  0
   -5.0333    2.9255    0.0000 C   0  0  0  0  0  0  0  0  0  0  0  0
   -3.7333    3.6755    0.0000 C   0  0  0  0  0  0  0  0  0  0  0  0
   -2.4361    2.9262    0.0000 C   0  0  0  0  0  0  0  0  0  0  0  0
   -1.1356    3.6746    0.0000 C   0  0  0  0  0  0  0  0  0  0  0  0
    0.1667   -0.0745    0.0000 O   0  0  0  0  0  0  0  0  0  0  0  0
    1.4667    3.6755    0.0000 C   0  0  0  0  0  0  0  0  0  0  0  0
    2.7652    7.4255    0.0000 O   0  0  0  0  0  0  0  0  0  0  0  0
   -2.4333    7.4255    0.0000 O   0  0  0  0  0  0  0  0  0  0  0  0
   -3.7323    8.1755    0.0000 C   0  0  0  0  0  0  0  0  0  0  0  0
  1  2  2  0
  2  3  1  0
  3  4  1  0
  4  5  1  0
  5  6  1  0
  6  7  2  0
  7  8  1  0
  8  9  2  0
  9 10  1  0
 10 11  1  0
 11 12  1  0
 12 13  1  0
 13 14  1  0
 14 15  1  0
 15 16  1  0
 16 17  1  0
  1 17  1  0
 17 18  2  0
 18 19  1  0
  3 19  2  0
 12 20  2  0
  9 21  1  0
  5 21  2  0
  6 22  1  0
  2 23  1  0
 23 24  1  0
M  END
>  <cdk:Title>  (477) 
(+)-Galeon

>  <1A2>  (477) 
N

>  <2A6>  (477) 
N

>  <2B6>  (477) 
N

>  <2C8>  (477) 
N

>  <2C9>  (477) 
N

>  <2C19>  (477) 
N

>  <2D6>  (477) 
N

>  <2E1>  (477) 
N

>  <3A4>  (477) 
N

>  <Citation>  (477) 
Nucleic Acids Res. 2018. Jan 4;46(D1):D608-17. PMID:29140435
Nucleic Acids Res. 2018 Jan 4;46(D1):D1074-D1082. PMID:29126136
Nucleic Acids Res., 45:D380-388 (2017).  PMID:27924025
Nucleic Acids Res. 2016 Jan 4;44(D1):D1202-13. PMID:26400175

>  <ROMol>  (477) 
<rdkit.Chem.rdchem.Mol object at 0x7c2905d5e880>

>  <Drug_like>  (477) 
True

$$$$
N-Desmethyleletriptan
     RDKit          2D

 26 29  0  0  0  0  0  0  0  0999 V2000
   -6.2963    0.0319    0.0000 S   0  0  0  0  0  0  0  0  0  0  0  0
   -6.7196    1.4710    0.0000 O   0  0  0  0  0  0  0  0  0  0  0  0
   -4.9527    0.6987    0.0000 O   0  0  0  0  0  0  0  0  0  0  0  0
   -5.4064   -1.1755    0.0000 C   0  0  0  0  0  0  0  0  0  0  0  0
   -3.4387   -0.9551    0.0000 C   0  0  0  0  0  0  0  0  0  0  0  0
   -2.5487   -2.1626    0.0000 C   0  0  0  0  0  0  0  0  0  0  0  0
   -1.0433   -1.9974    0.0000 C   0  0  0  0  0  0  0  0  0  0  0  0
   -0.1709   -3.2142    0.0000 C   0  0  0  0  0  0  0  0  0  0  0  0
    1.3230   -3.3720    0.0000 C   0  0  0  0  0  0  0  0  0  0  0  0
    2.3253   -2.2560    0.0000 C   0  0  0  0  0  0  0  0  0  0  0  0
    3.7929   -2.5661    0.0000 C   0  0  0  0  0  0  0  0  0  0  0  0
    3.9479   -1.0780    0.0000 N   0  0  0  0  0  0  0  0  0  0  0  0
    5.4159   -0.7593    0.0000 C   0  0  0  0  0  0  0  0  0  0  0  0
    6.1677   -2.0573    0.0000 C   0  0  0  0  0  0  0  0  0  0  0  0
    5.1608   -3.1721    0.0000 C   0  0  0  0  0  0  0  0  0  0  0  0
    1.6383   -4.8345    0.0000 C   0  0  0  0  0  0  0  0  0  0  0  0
    0.3441   -5.5852    0.0000 N   0  0  0  0  0  0  0  0  0  0  0  0
   -0.7725   -4.5992    0.0000 C   0  0  0  0  0  0  0  0  0  0  0  0
   -2.2699   -4.7461    0.0000 C   0  0  0  0  0  0  0  0  0  0  0  0
   -3.1463   -3.5384    0.0000 C   0  0  0  0  0  0  0  0  0  0  0  0
   -7.6400   -0.6348    0.0000 C   0  0  0  0  0  0  0  0  0  0  0  0
   -8.8894    0.1953    0.0000 C   0  0  0  0  0  0  0  0  0  0  0  0
  -10.2335   -0.4725    0.0000 C   0  0  0  0  0  0  0  0  0  0  0  0
  -10.3282   -1.9704    0.0000 C   0  0  0  0  0  0  0  0  0  0  0  0
   -9.0788   -2.8004    0.0000 C   0  0  0  0  0  0  0  0  0  0  0  0
   -7.7347   -2.1327    0.0000 C   0  0  0  0  0  0  0  0  0  0  0  0
  1  2  2  0
  1  3  2  0
  1  4  1  0
  4  5  1  0
  5  6  1  0
  6  7  2  0
  7  8  1  0
  8  9  1  0
  9 10  1  0
 10 11  1  0
 11 12  1  0
 12 13  1  0
 13 14  1  0
 14 15  1  0
 11 15  1  0
  9 16  2  0
 16 17  1  0
 17 18  1  0
  8 18  2  0
 18 19  1  0
 19 20  2  0
  6 20  1  0
  1 21  1  0
 21 22  2  0
 22 23  1  0
 23 24  2  0
 24 25  1  0
 25 26  2  0
 21 26  1  0
M  END
>  <cdk:Title>  (478) 
N-Desmethyleletriptan

>  <1A2>  (478) 
N

>  <2A6>  (478) 
N

>  <2B6>  (478) 
N

>  <2C8>  (478) 
N

>  <2C9>  (478) 
N

>  <2C19>  (478) 
N

>  <2D6>  (478) 
N

>  <2E1>  (478) 
N

>  <3A4>  (478) 
N

>  <Citation>  (478) 
Nucleic Acids Res. 2018. Jan 4;46(D1):D608-17. PMID:29140435
Nucleic Acids Res. 2018 Jan 4;46(D1):D1074-D1082. PMID:29126136
Nucleic Acids Res., 45:D380-388 (2017).  PMID:27924025
Nucleic Acids Res. 2016 Jan 4;44(D1):D1202-13. PMID:26400175

>  <ROMol>  (478) 
<rdkit.Chem.rdchem.Mol object at 0x7c2905d5e960>

>  <Drug_like>  (478) 
True

$$$$
AC1lgy0l
     RDKit          2D

 19 20  0  0  0  0  0  0  0  0999 V2000
   -1.5006    3.8153    0.0000 C   0  0  0  0  0  0  0  0  0  0  0  0
   -2.4650    4.9641    0.0000 C   0  0  0  0  0  0  0  0  0  0  0  0
   -3.9429    4.7027    0.0000 N   0  0  0  0  0  0  0  0  0  0  0  0
   -4.4564    3.2925    0.0000 C   0  0  0  0  0  0  0  0  0  0  0  0
   -3.4919    2.1436    0.0000 C   0  0  0  0  0  0  0  0  0  0  0  0
   -2.0140    2.4050    0.0000 N   0  0  0  0  0  0  0  0  0  0  0  0
   -4.0044    0.7339    0.0000 O   0  0  0  0  0  0  0  0  0  0  0  0
   -6.1711    4.2825    0.0000 C   0  0  0  0  0  0  0  0  0  0  0  0
   -7.4701    3.5325    0.0000 C   0  0  0  0  0  0  0  0  0  0  0  0
   -8.7692    4.2825    0.0000 O   0  0  0  0  0  0  0  0  0  0  0  0
   -7.4701    2.0325    0.0000 O   0  0  0  0  0  0  0  0  0  0  0  0
   -1.9525    6.3739    0.0000 O   0  0  0  0  0  0  0  0  0  0  0  0
   -0.2015    3.0653    0.0000 C   0  0  0  0  0  0  0  0  0  0  0  0
    1.0975    3.8153    0.0000 C   0  0  0  0  0  0  0  0  0  0  0  0
    2.3970    3.0644    0.0000 C   0  0  0  0  0  0  0  0  0  0  0  0
    3.6961    3.8144    0.0000 C   0  0  0  0  0  0  0  0  0  0  0  0
    3.6956    5.3153    0.0000 C   0  0  0  0  0  0  0  0  0  0  0  0
    2.3961    6.0661    0.0000 C   0  0  0  0  0  0  0  0  0  0  0  0
    1.0970    5.3161    0.0000 C   0  0  0  0  0  0  0  0  0  0  0  0
  1  2  1  0
  2  3  1  0
  3  4  1  0
  4  5  1  0
  5  6  1  0
  1  6  1  0
  5  7  2  0
  4  8  1  0
  8  9  1  0
  9 10  1  0
  9 11  2  0
  2 12  2  0
  1 13  1  0
 13 14  1  0
 14 15  2  0
 15 16  1  0
 16 17  2  0
 17 18  1  0
 18 19  2  0
 14 19  1  0
M  END
>  <cdk:Title>  (479) 
AC1lgy0l

>  <1A2>  (479) 
N

>  <2A6>  (479) 
N

>  <2B6>  (479) 
N

>  <2C8>  (479) 
N

>  <2C9>  (479) 
N

>  <2C19>  (479) 
N

>  <2D6>  (479) 
N

>  <2E1>  (479) 
N

>  <3A4>  (479) 
N

>  <Citation>  (479) 
Nucleic Acids Res. 2018. Jan 4;46(D1):D608-17. PMID:29140435
Nucleic Acids Res. 2018 Jan 4;46(D1):D1074-D1082. PMID:29126136
Nucleic Acids Res., 45:D380-388 (2017).  PMID:27924025
Nucleic Acids Res. 2016 Jan 4;44(D1):D1202-13. PMID:26400175

>  <ROMol>  (479) 
<rdkit.Chem.rdchem.Mol object at 0x7c2905d5e9d0>

>  <Drug_like>  (479) 
True

$$$$
O_O-Diethyl hydrogen thiophosphate
     RDKit          2D

  9  8  0  0  0  0  0  0  0  0999 V2000
    6.3170   -1.7014    0.0000 P   0  0  0  0  0  0  0  0  0  0  0  0
    7.6161   -0.9514    0.0000 O   0  0  0  0  0  0  0  0  0  0  0  0
    7.6161    0.5486    0.0000 C   0  0  0  0  0  0  0  0  0  0  0  0
    8.9151    1.2986    0.0000 C   0  0  0  0  0  0  0  0  0  0  0  0
    4.6023   -0.7114    0.0000 O   0  0  0  0  0  0  0  0  0  0  0  0
    3.3032   -1.4614    0.0000 C   0  0  0  0  0  0  0  0  0  0  0  0
    2.0042   -0.7114    0.0000 C   0  0  0  0  0  0  0  0  0  0  0  0
    5.3528   -2.8505    0.0000 O   0  0  0  0  0  0  0  0  0  0  0  0
    7.2812   -2.8505    0.0000 S   0  0  0  0  0  0  0  0  0  0  0  0
  1  2  1  0
  2  3  1  0
  3  4  1  0
  1  5  1  0
  5  6  1  0
  6  7  1  0
  1  8  1  0
  1  9  2  0
M  END
>  <cdk:Title>  (480) 
O_O-Diethyl hydrogen thiophosphate

>  <1A2>  (480) 
N

>  <2A6>  (480) 
N

>  <2B6>  (480) 
N

>  <2C8>  (480) 
N

>  <2C9>  (480) 
N

>  <2C19>  (480) 
N

>  <2D6>  (480) 
N

>  <2E1>  (480) 
N

>  <3A4>  (480) 
N

>  <Citation>  (480) 
Nucleic Acids Res. 2018. Jan 4;46(D1):D608-17. PMID:29140435
Nucleic Acids Res. 2018 Jan 4;46(D1):D1074-D1082. PMID:29126136
Nucleic Acids Res., 45:D380-388 (2017).  PMID:27924025
Nucleic Acids Res. 2016 Jan 4;44(D1):D1202-13. PMID:26400175

>  <ROMol>  (480) 
<rdkit.Chem.rdchem.Mol object at 0x7c2905d5eab0>

>  <Drug_like>  (480) 
True

$$$$
(S)-Hexane-1_5-diol
     RDKit          2D

  8  7  0  0  0  0  0  0  0  0999 V2000
    2.4877   -1.2432    0.0000 C   0  0  0  0  0  0  0  0  0  0  0  0
    3.9877   -1.2432    0.0000 C   0  0  0  0  0  0  0  0  0  0  0  0
    4.9777    0.4716    0.0000 C   0  0  0  0  0  0  0  0  0  0  0  0
    7.4377    0.4716    0.0000 C   0  0  0  0  0  0  0  0  0  0  0  0
    8.1877    1.7706    0.0000 C   0  0  0  0  0  0  0  0  0  0  0  0
    9.6877    1.7706    0.0000 C   0  0  0  0  0  0  0  0  0  0  0  0
   10.4377    0.4716    0.0000 O   0  0  0  0  0  0  0  0  0  0  0  0
    3.7273   -2.7204    0.0000 O   0  0  0  0  0  0  0  0  0  0  0  0
  1  2  1  0
  2  3  1  0
  3  4  1  0
  4  5  1  0
  5  6  1  0
  6  7  1  0
  2  8  1  0
M  END
>  <cdk:Title>  (481) 
(S)-Hexane-1_5-diol

>  <1A2>  (481) 
N

>  <2A6>  (481) 
N

>  <2B6>  (481) 
N

>  <2C8>  (481) 
N

>  <2C9>  (481) 
N

>  <2C19>  (481) 
N

>  <2D6>  (481) 
N

>  <2E1>  (481) 
N

>  <3A4>  (481) 
N

>  <Citation>  (481) 
Nucleic Acids Res. 2018. Jan 4;46(D1):D608-17. PMID:29140435
Nucleic Acids Res. 2018 Jan 4;46(D1):D1074-D1082. PMID:29126136
Nucleic Acids Res., 45:D380-388 (2017).  PMID:27924025
Nucleic Acids Res. 2016 Jan 4;44(D1):D1202-13. PMID:26400175

>  <ROMol>  (481) 
<rdkit.Chem.rdchem.Mol object at 0x7c2905d5eb20>

>  <Drug_like>  (481) 
True

$$$$
Avenanthramide 1F
     RDKit          2D

 23 24  0  0  0  0  0  0  0  0999 V2000
    3.6238    1.6057    0.0000 C   0  0  0  0  0  0  0  0  0  0  0  0
    4.9083    2.3306    0.0000 C   0  0  0  0  0  0  0  0  0  0  0  0
    4.9211    3.8127    0.0000 C   0  0  0  0  0  0  0  0  0  0  0  0
    3.6494    4.5701    0.0000 C   0  0  0  0  0  0  0  0  0  0  0  0
    2.3649    3.8452    0.0000 C   0  0  0  0  0  0  0  0  0  0  0  0
    2.3198    2.3471    0.0000 C   0  0  0  0  0  0  0  0  0  0  0  0
    1.0811    4.6210    0.0000 N   0  0  0  0  0  0  0  0  0  0  0  0
   -0.2327    3.8971    0.0000 C   0  0  0  0  0  0  0  0  0  0  0  0
   -1.5165    4.6729    0.0000 C   0  0  0  0  0  0  0  0  0  0  0  0
   -2.8302    3.9490    0.0000 C   0  0  0  0  0  0  0  0  0  0  0  0
   -4.1140    4.7248    0.0000 C   0  0  0  0  0  0  0  0  0  0  0  0
   -4.0836    6.2253    0.0000 C   0  0  0  0  0  0  0  0  0  0  0  0
   -5.3674    7.0011    0.0000 C   0  0  0  0  0  0  0  0  0  0  0  0
   -6.6816    6.2764    0.0000 C   0  0  0  0  0  0  0  0  0  0  0  0
   -6.7121    4.7759    0.0000 C   0  0  0  0  0  0  0  0  0  0  0  0
   -5.4283    4.0001    0.0000 C   0  0  0  0  0  0  0  0  0  0  0  0
   -8.0260    4.0522    0.0000 O   0  0  0  0  0  0  0  0  0  0  0  0
   -9.3096    4.8282    0.0000 C   0  0  0  0  0  0  0  0  0  0  0  0
   -7.9654    7.0522    0.0000 O   0  0  0  0  0  0  0  0  0  0  0  0
   -0.2626    2.3974    0.0000 O   0  0  0  0  0  0  0  0  0  0  0  0
    3.6669    6.0700    0.0000 C   0  0  0  0  0  0  0  0  0  0  0  0
    4.9746    6.8047    0.0000 O   0  0  0  0  0  0  0  0  0  0  0  0
    2.3767    6.8351    0.0000 O   0  0  0  0  0  0  0  0  0  0  0  0
  1  2  2  0
  2  3  1  0
  3  4  2  0
  4  5  1  0
  5  6  2  0
  1  6  1  0
  5  7  1  0
  7  8  1  0
  8  9  1  0
  9 10  2  0
 10 11  1  0
 11 12  2  0
 12 13  1  0
 13 14  2  0
 14 15  1  0
 15 16  2  0
 11 16  1  0
 15 17  1  0
 17 18  1  0
 14 19  1  0
  8 20  2  0
  4 21  1  0
 21 22  1  0
 21 23  2  0
M  END
>  <cdk:Title>  (482) 
Avenanthramide 1F

>  <1A2>  (482) 
N

>  <2A6>  (482) 
N

>  <2B6>  (482) 
N

>  <2C8>  (482) 
N

>  <2C9>  (482) 
N

>  <2C19>  (482) 
N

>  <2D6>  (482) 
N

>  <2E1>  (482) 
N

>  <3A4>  (482) 
N

>  <Citation>  (482) 
Nucleic Acids Res. 2018. Jan 4;46(D1):D608-17. PMID:29140435
Nucleic Acids Res. 2018 Jan 4;46(D1):D1074-D1082. PMID:29126136
Nucleic Acids Res., 45:D380-388 (2017).  PMID:27924025
Nucleic Acids Res. 2016 Jan 4;44(D1):D1202-13. PMID:26400175

>  <ROMol>  (482) 
<rdkit.Chem.rdchem.Mol object at 0x7c2905d5eb90>

>  <Drug_like>  (482) 
True

$$$$
(2S)-2alpha-(3-Methoxy-4-hydroxyphenyl)-4alpha-(1_3-benzodioxole-5-ylmethyl)tetr
     RDKit          2D

 26 29  0  0  0  0  0  0  0  0999 V2000
   13.1136    1.5773    0.0000 C   0  0  0  0  0  0  0  0  0  0  0  0
   11.6224    1.4149    0.0000 O   0  0  0  0  0  0  0  0  0  0  0  0
   11.0175    0.0423    0.0000 C   0  0  0  0  0  0  0  0  0  0  0  0
    9.5263   -0.1203    0.0000 C   0  0  0  0  0  0  0  0  0  0  0  0
    8.9217   -1.4940    0.0000 C   0  0  0  0  0  0  0  0  0  0  0  0
    9.8082   -2.7050    0.0000 C   0  0  0  0  0  0  0  0  0  0  0  0
   11.2994   -2.5424    0.0000 C   0  0  0  0  0  0  0  0  0  0  0  0
   11.9040   -1.1687    0.0000 C   0  0  0  0  0  0  0  0  0  0  0  0
   13.3952   -1.0061    0.0000 O   0  0  0  0  0  0  0  0  0  0  0  0
    6.9534   -1.7087    0.0000 C   0  0  0  0  0  0  0  0  0  0  0  0
    5.4690   -1.5518    0.0000 C   0  0  0  0  0  0  0  0  0  0  0  0
    6.0811    1.3238    0.0000 C   0  0  0  0  0  0  0  0  0  0  0  0
    4.9666    2.3278    0.0000 O   0  0  0  0  0  0  0  0  0  0  0  0
    4.8593   -2.9223    0.0000 C   0  0  0  0  0  0  0  0  0  0  0  0
    2.3123   -1.4538    0.0000 C   0  0  0  0  0  0  0  0  0  0  0  0
    1.0137   -2.2046    0.0000 C   0  0  0  0  0  0  0  0  0  0  0  0
    1.0137   -3.7246    0.0000 C   0  0  0  0  0  0  0  0  0  0  0  0
   -0.3063   -4.4846    0.0000 C   0  0  0  0  0  0  0  0  0  0  0  0
   -1.5963   -3.7246    0.0000 C   0  0  0  0  0  0  0  0  0  0  0  0
   -1.5963   -2.2046    0.0000 C   0  0  0  0  0  0  0  0  0  0  0  0
   -0.3063   -1.4446    0.0000 C   0  0  0  0  0  0  0  0  0  0  0  0
   -3.0263   -1.7646    0.0000 O   0  0  0  0  0  0  0  0  0  0  0  0
   -3.8763   -3.0546    0.0000 C   0  0  0  0  0  0  0  0  0  0  0  0
   -2.9963   -4.1646    0.0000 O   0  0  0  0  0  0  0  0  0  0  0  0
    5.9697   -3.9197    0.0000 C   0  0  0  0  0  0  0  0  0  0  0  0
    7.2747   -3.1760    0.0000 O   0  0  0  0  0  0  0  0  0  0  0  0
  1  2  1  0
  2  3  1  0
  3  4  2  0
  4  5  1  0
  5  6  2  0
  6  7  1  0
  7  8  2  0
  3  8  1  0
  8  9  1  0
  5 10  1  0
 10 11  1  0
 11 12  1  0
 12 13  1  0
 11 14  1  0
 14 15  1  0
 15 16  1  0
 16 17  2  0
 17 18  1  0
 18 19  2  0
 19 20  1  0
 20 21  2  0
 16 21  1  0
 20 22  1  0
 22 23  1  0
 23 24  1  0
 19 24  1  0
 14 25  1  0
 25 26  1  0
 10 26  1  0
M  END
>  <cdk:Title>  (483) 
(2S)-2alpha-(3-Methoxy-4-hydroxyphenyl)-4alpha-(1_3-benzodioxole-5-ylmethyl)tetrahydrofuran-3beta-methanol

>  <1A2>  (483) 
N

>  <2A6>  (483) 
N

>  <2B6>  (483) 
N

>  <2C8>  (483) 
N

>  <2C9>  (483) 
N

>  <2C19>  (483) 
N

>  <2D6>  (483) 
N

>  <2E1>  (483) 
N

>  <3A4>  (483) 
N

>  <Citation>  (483) 
Nucleic Acids Res. 2018. Jan 4;46(D1):D608-17. PMID:29140435
Nucleic Acids Res. 2018 Jan 4;46(D1):D1074-D1082. PMID:29126136
Nucleic Acids Res., 45:D380-388 (2017).  PMID:27924025
Nucleic Acids Res. 2016 Jan 4;44(D1):D1202-13. PMID:26400175

>  <ROMol>  (483) 
<rdkit.Chem.rdchem.Mol object at 0x7c2905d5ec00>

>  <Drug_like>  (483) 
True

$$$$
(2R)-2-{[(2R)-2-amino-1-hydroxy-4-(methylsulfanyl)butylidene]amino}propanoic aci
     RDKit          2D

 14 13  0  0  0  0  0  0  0  0999 V2000
   11.6650    1.5168    0.0000 C   0  0  0  0  0  0  0  0  0  0  0  0
   10.7008    0.3677    0.0000 C   0  0  0  0  0  0  0  0  0  0  0  0
    9.4018   -0.3823    0.0000 N   0  0  0  0  0  0  0  0  0  0  0  0
    8.1028    0.3677    0.0000 C   0  0  0  0  0  0  0  0  0  0  0  0
    8.1028    1.8677    0.0000 O   0  0  0  0  0  0  0  0  0  0  0  0
    6.8037   -0.3823    0.0000 C   0  0  0  0  0  0  0  0  0  0  0  0
    5.5310   -1.8991    0.0000 N   0  0  0  0  0  0  0  0  0  0  0  0
    5.5047    0.3677    0.0000 C   0  0  0  0  0  0  0  0  0  0  0  0
    5.5047    1.8677    0.0000 C   0  0  0  0  0  0  0  0  0  0  0  0
    4.2057    2.6177    0.0000 S   0  0  0  0  0  0  0  0  0  0  0  0
    4.2057    4.1177    0.0000 C   0  0  0  0  0  0  0  0  0  0  0  0
   11.9999   -0.3823    0.0000 C   0  0  0  0  0  0  0  0  0  0  0  0
   13.2989    0.3677    0.0000 O   0  0  0  0  0  0  0  0  0  0  0  0
   11.9999   -1.8823    0.0000 O   0  0  0  0  0  0  0  0  0  0  0  0
  1  2  1  0
  2  3  1  0
  3  4  1  0
  4  5  2  0
  4  6  1  0
  6  7  1  0
  6  8  1  0
  8  9  1  0
  9 10  1  0
 10 11  1  0
  2 12  1  0
 12 13  1  0
 12 14  2  0
M  END
>  <cdk:Title>  (484) 
(2R)-2-{[(2R)-2-amino-1-hydroxy-4-(methylsulfanyl)butylidene]amino}propanoic acid

>  <1A2>  (484) 
N

>  <2A6>  (484) 
N

>  <2B6>  (484) 
N

>  <2C8>  (484) 
N

>  <2C9>  (484) 
N

>  <2C19>  (484) 
N

>  <2D6>  (484) 
N

>  <2E1>  (484) 
N

>  <3A4>  (484) 
N

>  <Citation>  (484) 
Nucleic Acids Res. 2018. Jan 4;46(D1):D608-17. PMID:29140435
Nucleic Acids Res. 2018 Jan 4;46(D1):D1074-D1082. PMID:29126136
Nucleic Acids Res., 45:D380-388 (2017).  PMID:27924025
Nucleic Acids Res. 2016 Jan 4;44(D1):D1202-13. PMID:26400175

>  <ROMol>  (484) 
<rdkit.Chem.rdchem.Mol object at 0x7c2905d5ec70>

>  <Drug_like>  (484) 
True

$$$$
9S-Hode
     RDKit          2D

 21 20  0  0  0  0  0  0  0  0999 V2000
    7.0602    4.7305    0.0000 O   0  0  0  0  0  0  0  0  0  0  0  0
    8.0244    5.8795    0.0000 C   0  0  0  0  0  0  0  0  0  0  0  0
    9.7391    6.8695    0.0000 C   0  0  0  0  0  0  0  0  0  0  0  0
   11.4538    5.8795    0.0000 C   0  0  0  0  0  0  0  0  0  0  0  0
   13.1686    6.8695    0.0000 C   0  0  0  0  0  0  0  0  0  0  0  0
   14.8833    5.8795    0.0000 C   0  0  0  0  0  0  0  0  0  0  0  0
   16.5980    6.8695    0.0000 C   0  0  0  0  0  0  0  0  0  0  0  0
   18.3127    5.8795    0.0000 C   0  0  0  0  0  0  0  0  0  0  0  0
   19.6118    6.6295    0.0000 C   0  0  0  0  0  0  0  0  0  0  0  0
   20.9108    5.8795    0.0000 C   0  0  0  0  0  0  0  0  0  0  0  0
   22.2099    6.6295    0.0000 O   0  0  0  0  0  0  0  0  0  0  0  0
   20.9108    4.3795    0.0000 O   0  0  0  0  0  0  0  0  0  0  0  0
    6.7253    6.6295    0.0000 C   0  0  0  0  0  0  0  0  0  0  0  0
    5.4263    5.8795    0.0000 C   0  0  0  0  0  0  0  0  0  0  0  0
    4.1272    6.6295    0.0000 C   0  0  0  0  0  0  0  0  0  0  0  0
    2.8282    5.8795    0.0000 C   0  0  0  0  0  0  0  0  0  0  0  0
    2.8282    4.3795    0.0000 C   0  0  0  0  0  0  0  0  0  0  0  0
    1.5292    3.6295    0.0000 C   0  0  0  0  0  0  0  0  0  0  0  0
    1.5292    1.1695    0.0000 C   0  0  0  0  0  0  0  0  0  0  0  0
    0.2301    0.4195    0.0000 C   0  0  0  0  0  0  0  0  0  0  0  0
    0.2301   -1.0805    0.0000 C   0  0  0  0  0  0  0  0  0  0  0  0
  1  2  1  0
  2  3  1  0
  3  4  1  0
  4  5  1  0
  5  6  1  0
  6  7  1  0
  7  8  1  0
  8  9  1  0
  9 10  1  0
 10 11  1  0
 10 12  2  0
  2 13  1  0
 13 14  2  0
 14 15  1  0
 15 16  2  0
 16 17  1  0
 17 18  1  0
 18 19  1  0
 19 20  1  0
 20 21  1  0
M  END
>  <cdk:Title>  (485) 
9S-Hode

>  <1A2>  (485) 
N

>  <2A6>  (485) 
N

>  <2B6>  (485) 
N

>  <2C8>  (485) 
N

>  <2C9>  (485) 
N

>  <2C19>  (485) 
N

>  <2D6>  (485) 
N

>  <2E1>  (485) 
N

>  <3A4>  (485) 
N

>  <Citation>  (485) 
Nucleic Acids Res. 2018. Jan 4;46(D1):D608-17. PMID:29140435
Nucleic Acids Res. 2018 Jan 4;46(D1):D1074-D1082. PMID:29126136
Nucleic Acids Res., 45:D380-388 (2017).  PMID:27924025
Nucleic Acids Res. 2016 Jan 4;44(D1):D1202-13. PMID:26400175

>  <ROMol>  (485) 
<rdkit.Chem.rdchem.Mol object at 0x7c2905d5ece0>

>  <Drug_like>  (485) 
True

$$$$
UNII-V16hyx6K7b component lryftdgiiutffa-inizcteosa-N
     RDKit          2D

 21 21  0  0  0  0  0  0  0  0999 V2000
   -4.2616    1.9805    0.0000 C   0  0  0  0  0  0  0  0  0  0  0  0
   -2.9627    1.2303    0.0000 C   0  0  0  0  0  0  0  0  0  0  0  0
   -2.9627   -0.2697    0.0000 C   0  0  0  0  0  0  0  0  0  0  0  0
   -4.2616   -1.0199    0.0000 C   0  0  0  0  0  0  0  0  0  0  0  0
   -1.6627   -1.0197    0.0000 C   0  0  0  0  0  0  0  0  0  0  0  0
   -0.3627   -0.2697    0.0000 C   0  0  0  0  0  0  0  0  0  0  0  0
    0.9362   -1.0199    0.0000 C   0  0  0  0  0  0  0  0  0  0  0  0
    2.2354   -0.2701    0.0000 C   0  0  0  0  0  0  0  0  0  0  0  0
    4.7813   -1.7406    0.0000 C   0  0  0  0  0  0  0  0  0  0  0  0
    3.8169   -2.8895    0.0000 C   0  0  0  0  0  0  0  0  0  0  0  0
    6.4962   -0.7508    0.0000 C   0  0  0  0  0  0  0  0  0  0  0  0
    9.0420   -2.2212    0.0000 C   0  0  0  0  0  0  0  0  0  0  0  0
   10.3412   -1.4714    0.0000 C   0  0  0  0  0  0  0  0  0  0  0  0
   10.3414    0.0286    0.0000 O   0  0  0  0  0  0  0  0  0  0  0  0
   11.6401   -2.2217    0.0000 O   0  0  0  0  0  0  0  0  0  0  0  0
    5.7453   -2.8898    0.0000 O   0  0  0  0  0  0  0  0  0  0  0  0
   -0.3627    1.2303    0.0000 C   0  0  0  0  0  0  0  0  0  0  0  0
    0.9362    1.9805    0.0000 C   0  0  0  0  0  0  0  0  0  0  0  0
   -1.6627    1.9803    0.0000 C   0  0  0  0  0  0  0  0  0  0  0  0
   -1.6627    3.4803    0.0000 O   0  0  0  0  0  0  0  0  0  0  0  0
   -1.6627   -2.5197    0.0000 O   0  0  0  0  0  0  0  0  0  0  0  0
  1  2  1  0
  2  3  2  0
  3  4  1  0
  3  5  1  0
  5  6  1  0
  6  7  1  0
  7  8  1  0
  8  9  1  0
  9 10  1  6
  9 11  1  0
 11 12  1  0
 12 13  1  0
 13 14  2  0
 13 15  1  0
  9 16  1  0
  6 17  2  0
 17 18  1  0
 17 19  1  0
  2 19  1  0
 19 20  2  0
  5 21  2  0
M  END
>  <cdk:Title>  (486) 
UNII-V16hyx6K7b component lryftdgiiutffa-inizcteosa-N

>  <1A2>  (486) 
N

>  <2A6>  (486) 
N

>  <2B6>  (486) 
N

>  <2C8>  (486) 
N

>  <2C9>  (486) 
N

>  <2C19>  (486) 
N

>  <2D6>  (486) 
N

>  <2E1>  (486) 
N

>  <3A4>  (486) 
N

>  <Citation>  (486) 
Nucleic Acids Res. 2018. Jan 4;46(D1):D608-17. PMID:29140435
Nucleic Acids Res. 2018 Jan 4;46(D1):D1074-D1082. PMID:29126136
Nucleic Acids Res., 45:D380-388 (2017).  PMID:27924025
Nucleic Acids Res. 2016 Jan 4;44(D1):D1202-13. PMID:26400175

>  <ROMol>  (486) 
<rdkit.Chem.rdchem.Mol object at 0x7c2905d5edc0>

>  <Drug_like>  (486) 
True

$$$$
ZINC13744633
     RDKit          2D

 21 23  0  0  0  0  0  0  0  0999 V2000
    4.7957   -6.2731    0.0000 O   0  0  0  0  0  0  0  0  0  0  0  0
    3.5814   -5.3925    0.0000 C   0  0  0  0  0  0  0  0  0  0  0  0
    3.5825   -3.8964    0.0000 C   0  0  0  0  0  0  0  0  0  0  0  0
    4.1943   -1.0207    0.0000 C   0  0  0  0  0  0  0  0  0  0  0  0
    6.9905   -0.1126    0.0000 C   0  0  0  0  0  0  0  0  0  0  0  0
    6.2858    1.2125    0.0000 C   0  0  0  0  0  0  0  0  0  0  0  0
    7.0811    2.4843    0.0000 C   0  0  0  0  0  0  0  0  0  0  0  0
    8.5809    2.4311    0.0000 N   0  0  0  0  0  0  0  0  0  0  0  0
    9.2856    1.1060    0.0000 C   0  0  0  0  0  0  0  0  0  0  0  0
    8.4904   -0.1659    0.0000 C   0  0  0  0  0  0  0  0  0  0  0  0
    2.1595   -3.4342    0.0000 C   0  0  0  0  0  0  0  0  0  0  0  0
    1.2726   -4.6466    0.0000 C   0  0  0  0  0  0  0  0  0  0  0  0
    2.1539   -5.8604    0.0000 C   0  0  0  0  0  0  0  0  0  0  0  0
    1.5426   -7.2311    0.0000 C   0  0  0  0  0  0  0  0  0  0  0  0
    0.0500   -7.3880    0.0000 C   0  0  0  0  0  0  0  0  0  0  0  0
   -0.5603   -8.7582    0.0000 O   0  0  0  0  0  0  0  0  0  0  0  0
    0.3212   -9.9719    0.0000 C   0  0  0  0  0  0  0  0  0  0  0  0
   -0.8313   -6.1742    0.0000 C   0  0  0  0  0  0  0  0  0  0  0  0
   -2.3232   -6.3303    0.0000 O   0  0  0  0  0  0  0  0  0  0  0  0
   -2.9339   -7.7003    0.0000 C   0  0  0  0  0  0  0  0  0  0  0  0
   -0.2200   -4.8035    0.0000 C   0  0  0  0  0  0  0  0  0  0  0  0
  1  2  2  0
  2  3  1  0
  3  4  1  0
  4  5  1  0
  5  6  1  0
  6  7  1  0
  7  8  1  0
  8  9  1  0
  9 10  1  0
  5 10  1  0
  3 11  1  0
 11 12  1  0
 12 13  2  0
  2 13  1  0
 13 14  1  0
 14 15  2  0
 15 16  1  0
 16 17  1  0
 15 18  1  0
 18 19  1  0
 19 20  1  0
 18 21  2  0
 12 21  1  0
M  END
>  <cdk:Title>  (487) 
ZINC13744633

>  <1A2>  (487) 
N

>  <2A6>  (487) 
N

>  <2B6>  (487) 
N

>  <2C8>  (487) 
N

>  <2C9>  (487) 
N

>  <2C19>  (487) 
N

>  <2D6>  (487) 
N

>  <2E1>  (487) 
N

>  <3A4>  (487) 
N

>  <Citation>  (487) 
Nucleic Acids Res. 2018. Jan 4;46(D1):D608-17. PMID:29140435
Nucleic Acids Res. 2018 Jan 4;46(D1):D1074-D1082. PMID:29126136
Nucleic Acids Res., 45:D380-388 (2017).  PMID:27924025
Nucleic Acids Res. 2016 Jan 4;44(D1):D1202-13. PMID:26400175

>  <ROMol>  (487) 
<rdkit.Chem.rdchem.Mol object at 0x7c2905d5ef10>

>  <Drug_like>  (487) 
True

$$$$
AC1lexgz
     RDKit          2D

 14 14  0  0  0  0  0  0  0  0999 V2000
   -4.0245    4.1433    0.0000 C   0  0  0  0  0  0  0  0  0  0  0  0
   -2.5245    4.1433    0.0000 C   0  0  0  0  0  0  0  0  0  0  0  0
   -1.7745    2.8443    0.0000 N   0  0  0  0  0  0  0  0  0  0  0  0
   -0.2745    2.8443    0.0000 C   0  0  0  0  0  0  0  0  0  0  0  0
    0.4755    4.1433    0.0000 O   0  0  0  0  0  0  0  0  0  0  0  0
    0.4755    1.5453    0.0000 C   0  0  0  0  0  0  0  0  0  0  0  0
    1.9764    1.5458    0.0000 C   0  0  0  0  0  0  0  0  0  0  0  0
    2.7264    0.2467    0.0000 C   0  0  0  0  0  0  0  0  0  0  0  0
    1.9755   -1.0528    0.0000 C   0  0  0  0  0  0  0  0  0  0  0  0
    0.4747   -1.0533    0.0000 C   0  0  0  0  0  0  0  0  0  0  0  0
   -0.2753    0.2458    0.0000 C   0  0  0  0  0  0  0  0  0  0  0  0
   -1.1149    4.6564    0.0000 O   0  0  0  0  0  0  0  0  0  0  0  0
   -4.7745    2.8443    0.0000 O   0  0  0  0  0  0  0  0  0  0  0  0
   -4.7745    5.4424    0.0000 O   0  0  0  0  0  0  0  0  0  0  0  0
  1  2  1  0
  2  3  1  0
  3  4  1  0
  4  5  2  0
  4  6  1  0
  6  7  2  0
  7  8  1  0
  8  9  2  0
  9 10  1  0
 10 11  2  0
  6 11  1  0
  2 12  1  0
  1 13  2  0
  1 14  1  0
M  END
>  <cdk:Title>  (488) 
AC1lexgz

>  <1A2>  (488) 
N

>  <2A6>  (488) 
N

>  <2B6>  (488) 
N

>  <2C8>  (488) 
N

>  <2C9>  (488) 
N

>  <2C19>  (488) 
N

>  <2D6>  (488) 
N

>  <2E1>  (488) 
N

>  <3A4>  (488) 
N

>  <Citation>  (488) 
Nucleic Acids Res. 2018. Jan 4;46(D1):D608-17. PMID:29140435
Nucleic Acids Res. 2018 Jan 4;46(D1):D1074-D1082. PMID:29126136
Nucleic Acids Res., 45:D380-388 (2017).  PMID:27924025
Nucleic Acids Res. 2016 Jan 4;44(D1):D1202-13. PMID:26400175

>  <ROMol>  (488) 
<rdkit.Chem.rdchem.Mol object at 0x7c2905d5ef80>

>  <Drug_like>  (488) 
True

$$$$
m-Chlorohippuric acid
     RDKit          2D

 14 14  0  0  0  0  0  0  0  0999 V2000
   -2.5967    1.1340    0.0000 Cl  0  0  0  0  0  0  0  0  0  0  0  0
   -1.3000    0.3800    0.0000 C   0  0  0  0  0  0  0  0  0  0  0  0
   -0.0000    1.1200    0.0000 C   0  0  0  0  0  0  0  0  0  0  0  0
    1.3000    0.3800    0.0000 C   0  0  0  0  0  0  0  0  0  0  0  0
    2.5967    1.1340    0.0000 C   0  0  0  0  0  0  0  0  0  0  0  0
    2.5922    2.6340    0.0000 O   0  0  0  0  0  0  0  0  0  0  0  0
    3.8981    0.3879    0.0000 N   0  0  0  0  0  0  0  0  0  0  0  0
    5.1948    1.1419    0.0000 C   0  0  0  0  0  0  0  0  0  0  0  0
    6.4961    0.3959    0.0000 C   0  0  0  0  0  0  0  0  0  0  0  0
    7.7929    1.1498    0.0000 O   0  0  0  0  0  0  0  0  0  0  0  0
    6.5007   -1.1041    0.0000 O   0  0  0  0  0  0  0  0  0  0  0  0
    1.3000   -1.1200    0.0000 C   0  0  0  0  0  0  0  0  0  0  0  0
   -0.0000   -1.8800    0.0000 C   0  0  0  0  0  0  0  0  0  0  0  0
   -1.3000   -1.1200    0.0000 C   0  0  0  0  0  0  0  0  0  0  0  0
  1  2  1  0
  2  3  2  0
  3  4  1  0
  4  5  1  0
  5  6  2  0
  5  7  1  0
  7  8  1  0
  8  9  1  0
  9 10  1  0
  9 11  2  0
  4 12  2  0
 12 13  1  0
 13 14  2  0
  2 14  1  0
M  END
>  <cdk:Title>  (489) 
m-Chlorohippuric acid

>  <1A2>  (489) 
N

>  <2A6>  (489) 
N

>  <2B6>  (489) 
N

>  <2C8>  (489) 
N

>  <2C9>  (489) 
N

>  <2C19>  (489) 
N

>  <2D6>  (489) 
N

>  <2E1>  (489) 
N

>  <3A4>  (489) 
N

>  <Citation>  (489) 
Nucleic Acids Res. 2018. Jan 4;46(D1):D608-17. PMID:29140435
Nucleic Acids Res. 2018 Jan 4;46(D1):D1074-D1082. PMID:29126136
Nucleic Acids Res., 45:D380-388 (2017).  PMID:27924025
Nucleic Acids Res. 2016 Jan 4;44(D1):D1202-13. PMID:26400175

>  <ROMol>  (489) 
<rdkit.Chem.rdchem.Mol object at 0x7c2905d5eff0>

>  <Drug_like>  (489) 
True

$$$$
2'-Cytidylic acid
     RDKit          2D

 21 22  0  0  0  0  0  0  0  0999 V2000
   -2.9634   -1.0734    0.0000 C   0  0  0  0  0  0  0  0  0  0  0  0
   -1.6434   -1.7934    0.0000 N   0  0  0  0  0  0  0  0  0  0  0  0
   -1.6164   -3.7733    0.0000 C   0  0  0  0  0  0  0  0  0  0  0  0
   -1.9088   -5.2406    0.0000 O   0  0  0  0  0  0  0  0  0  0  0  0
   -0.6030   -5.9708    0.0000 C   0  0  0  0  0  0  0  0  0  0  0  0
   -1.4685   -7.1959    0.0000 C   0  0  0  0  0  0  0  0  0  0  0  0
   -0.8403   -8.5581    0.0000 O   0  0  0  0  0  0  0  0  0  0  0  0
    0.4939   -4.9585    0.0000 C   0  0  0  0  0  0  0  0  0  0  0  0
   -0.1343   -3.5963    0.0000 C   0  0  0  0  0  0  0  0  0  0  0  0
    2.6493   -2.6501    0.0000 O   0  0  0  0  0  0  0  0  0  0  0  0
    3.7775   -3.6387    0.0000 P   0  0  0  0  0  0  0  0  0  0  0  0
    2.6081   -4.5781    0.0000 O   0  0  0  0  0  0  0  0  0  0  0  0
    5.1977   -3.1559    0.0000 O   0  0  0  0  0  0  0  0  0  0  0  0
    4.4995   -4.9535    0.0000 O   0  0  0  0  0  0  0  0  0  0  0  0
    1.3908   -6.1608    0.0000 O   0  0  0  0  0  0  0  0  0  0  0  0
   -0.3534   -1.0434    0.0000 C   0  0  0  0  0  0  0  0  0  0  0  0
   -0.3534    0.4566    0.0000 N   0  0  0  0  0  0  0  0  0  0  0  0
   -1.6734    1.2066    0.0000 C   0  0  0  0  0  0  0  0  0  0  0  0
   -2.9634    0.4566    0.0000 C   0  0  0  0  0  0  0  0  0  0  0  0
   -1.6808    2.7065    0.0000 N   0  0  0  0  0  0  0  0  0  0  0  0
    0.9468   -1.7915    0.0000 O   0  0  0  0  0  0  0  0  0  0  0  0
  1  2  1  0
  2  3  1  0
  3  4  1  0
  4  5  1  0
  5  6  1  0
  6  7  1  0
  5  8  1  0
  8  9  1  0
  3  9  1  0
  9 10  1  0
 10 11  1  0
 11 12  2  0
 11 13  1  0
 11 14  1  0
  8 15  1  0
  2 16  1  0
 16 17  1  0
 17 18  2  0
 18 19  1  0
  1 19  2  0
 18 20  1  0
 16 21  2  0
M  END
>  <cdk:Title>  (490) 
2'-Cytidylic acid

>  <1A2>  (490) 
N

>  <2A6>  (490) 
N

>  <2B6>  (490) 
N

>  <2C8>  (490) 
N

>  <2C9>  (490) 
N

>  <2C19>  (490) 
N

>  <2D6>  (490) 
N

>  <2E1>  (490) 
N

>  <3A4>  (490) 
N

>  <Citation>  (490) 
Nucleic Acids Res. 2018. Jan 4;46(D1):D608-17. PMID:29140435
Nucleic Acids Res. 2018 Jan 4;46(D1):D1074-D1082. PMID:29126136
Nucleic Acids Res., 45:D380-388 (2017).  PMID:27924025
Nucleic Acids Res. 2016 Jan 4;44(D1):D1202-13. PMID:26400175

>  <ROMol>  (490) 
<rdkit.Chem.rdchem.Mol object at 0x7c2905d5f060>

>  <Drug_like>  (490) 
True

$$$$
XPEAPCMHDFIXFL-mrvpvssysa-N
     RDKit          2D

 12 12  0  0  0  0  0  0  0  0999 V2000
   -3.2899    2.4204    0.0000 C   0  0  0  0  0  0  0  0  0  0  0  0
   -1.8127    2.1596    0.0000 C   0  0  0  0  0  0  0  0  0  0  0  0
   -0.8483    3.3085    0.0000 C   0  0  0  0  0  0  0  0  0  0  0  0
   -0.9719   -0.1522    0.0000 C   0  0  0  0  0  0  0  0  0  0  0  0
    0.3281    0.5978    0.0000 C   0  0  0  0  0  0  0  0  0  0  0  0
    1.6281   -0.1522    0.0000 C   0  0  0  0  0  0  0  0  0  0  0  0
    1.6281   -1.6522    0.0000 C   0  0  0  0  0  0  0  0  0  0  0  0
    2.9271   -2.4024    0.0000 C   0  0  0  0  0  0  0  0  0  0  0  0
    0.3281   -2.4022    0.0000 C   0  0  0  0  0  0  0  0  0  0  0  0
   -0.9719   -1.6522    0.0000 C   0  0  0  0  0  0  0  0  0  0  0  0
    0.3281   -3.9022    0.0000 O   0  0  0  0  0  0  0  0  0  0  0  0
    2.9271    0.5980    0.0000 O   0  0  0  0  0  0  0  0  0  0  0  0
  1  2  2  0
  2  3  1  0
  2  4  1  0
  4  5  1  0
  5  6  1  0
  6  7  2  0
  7  8  1  0
  7  9  1  0
  9 10  1  0
  4 10  1  0
  9 11  2  0
  6 12  1  0
M  END
>  <cdk:Title>  (491) 
XPEAPCMHDFIXFL-mrvpvssysa-N

>  <1A2>  (491) 
N

>  <2A6>  (491) 
N

>  <2B6>  (491) 
N

>  <2C8>  (491) 
N

>  <2C9>  (491) 
N

>  <2C19>  (491) 
N

>  <2D6>  (491) 
N

>  <2E1>  (491) 
N

>  <3A4>  (491) 
N

>  <Citation>  (491) 
Nucleic Acids Res. 2018. Jan 4;46(D1):D608-17. PMID:29140435
Nucleic Acids Res. 2018 Jan 4;46(D1):D1074-D1082. PMID:29126136
Nucleic Acids Res., 45:D380-388 (2017).  PMID:27924025
Nucleic Acids Res. 2016 Jan 4;44(D1):D1202-13. PMID:26400175

>  <ROMol>  (491) 
<rdkit.Chem.rdchem.Mol object at 0x7c2905d5f0d0>

>  <Drug_like>  (491) 
True

$$$$
Pipericine
     RDKit          2D

 24 23  0  0  0  0  0  0  0  0999 V2000
   26.7234   -2.1418    0.0000 C   0  0  0  0  0  0  0  0  0  0  0  0
   25.2534    0.4043    0.0000 C   0  0  0  0  0  0  0  0  0  0  0  0
   23.2734    0.4043    0.0000 C   0  0  0  0  0  0  0  0  0  0  0  0
   22.2834    2.1191    0.0000 C   0  0  0  0  0  0  0  0  0  0  0  0
   20.7834    2.1191    0.0000 C   0  0  0  0  0  0  0  0  0  0  0  0
   19.5534    4.2495    0.0000 C   0  0  0  0  0  0  0  0  0  0  0  0
   17.5734    4.2495    0.0000 C   0  0  0  0  0  0  0  0  0  0  0  0
   16.5834    5.9642    0.0000 C   0  0  0  0  0  0  0  0  0  0  0  0
   14.6034    5.9642    0.0000 C   0  0  0  0  0  0  0  0  0  0  0  0
   13.6134    7.6789    0.0000 C   0  0  0  0  0  0  0  0  0  0  0  0
   12.1134    7.6789    0.0000 C   0  0  0  0  0  0  0  0  0  0  0  0
   11.3634    8.9780    0.0000 C   0  0  0  0  0  0  0  0  0  0  0  0
    9.8634    8.9780    0.0000 C   0  0  0  0  0  0  0  0  0  0  0  0
    9.1134    7.6789    0.0000 C   0  0  0  0  0  0  0  0  0  0  0  0
    7.6134    7.6789    0.0000 C   0  0  0  0  0  0  0  0  0  0  0  0
    6.8634    6.3799    0.0000 C   0  0  0  0  0  0  0  0  0  0  0  0
    5.3634    6.3799    0.0000 N   0  0  0  0  0  0  0  0  0  0  0  0
    4.6134    5.0809    0.0000 C   0  0  0  0  0  0  0  0  0  0  0  0
    1.6734    5.0809    0.0000 C   0  0  0  0  0  0  0  0  0  0  0  0
    0.9234    6.3799    0.0000 C   0  0  0  0  0  0  0  0  0  0  0  0
    2.1839    2.1855    0.0000 C   0  0  0  0  0  0  0  0  0  0  0  0
    7.6134    5.0809    0.0000 O   0  0  0  0  0  0  0  0  0  0  0  0
   28.2234   -2.1418    0.0000 C   0  0  0  0  0  0  0  0  0  0  0  0
   28.9734   -3.4408    0.0000 C   0  0  0  0  0  0  0  0  0  0  0  0
  1  2  1  0
  2  3  1  0
  3  4  1  0
  4  5  1  0
  5  6  1  0
  6  7  1  0
  7  8  1  0
  8  9  1  0
  9 10  1  0
 10 11  1  0
 11 12  1  0
 12 13  2  0
 13 14  1  0
 14 15  2  0
 15 16  1  0
 16 17  1  0
 17 18  1  0
 18 19  1  0
 19 20  1  0
 19 21  1  0
 16 22  2  0
  1 23  1  0
 23 24  1  0
M  END
>  <cdk:Title>  (492) 
Pipericine

>  <1A2>  (492) 
N

>  <2A6>  (492) 
N

>  <2B6>  (492) 
N

>  <2C8>  (492) 
N

>  <2C9>  (492) 
N

>  <2C19>  (492) 
N

>  <2D6>  (492) 
N

>  <2E1>  (492) 
N

>  <3A4>  (492) 
N

>  <Citation>  (492) 
Nucleic Acids Res. 2018. Jan 4;46(D1):D608-17. PMID:29140435
Nucleic Acids Res. 2018 Jan 4;46(D1):D1074-D1082. PMID:29126136
Nucleic Acids Res., 45:D380-388 (2017).  PMID:27924025
Nucleic Acids Res. 2016 Jan 4;44(D1):D1202-13. PMID:26400175

>  <ROMol>  (492) 
<rdkit.Chem.rdchem.Mol object at 0x7c2905d5f140>

>  <Drug_like>  (492) 
True

$$$$
Stearoylethanolamide
     RDKit          2D

 23 22  0  0  0  0  0  0  0  0999 V2000
   31.9044    0.4800    0.0000 C   0  0  0  0  0  0  0  0  0  0  0  0
   30.6053   -0.2700    0.0000 C   0  0  0  0  0  0  0  0  0  0  0  0
   28.4749    0.9600    0.0000 C   0  0  0  0  0  0  0  0  0  0  0  0
   26.7602   -0.0300    0.0000 C   0  0  0  0  0  0  0  0  0  0  0  0
   25.0455    0.9600    0.0000 C   0  0  0  0  0  0  0  0  0  0  0  0
   23.3307   -0.0300    0.0000 C   0  0  0  0  0  0  0  0  0  0  0  0
   21.6160    0.9600    0.0000 C   0  0  0  0  0  0  0  0  0  0  0  0
   19.9013   -0.0300    0.0000 C   0  0  0  0  0  0  0  0  0  0  0  0
   18.6022    0.7200    0.0000 C   0  0  0  0  0  0  0  0  0  0  0  0
   16.4718   -0.5100    0.0000 C   0  0  0  0  0  0  0  0  0  0  0  0
   14.7571    0.4800    0.0000 C   0  0  0  0  0  0  0  0  0  0  0  0
   13.0423   -0.5100    0.0000 C   0  0  0  0  0  0  0  0  0  0  0  0
   11.3276    0.4800    0.0000 C   0  0  0  0  0  0  0  0  0  0  0  0
    9.6129   -0.5100    0.0000 C   0  0  0  0  0  0  0  0  0  0  0  0
    7.8982    0.4800    0.0000 C   0  0  0  0  0  0  0  0  0  0  0  0
    6.1834   -0.5100    0.0000 C   0  0  0  0  0  0  0  0  0  0  0  0
    4.8844    0.2400    0.0000 C   0  0  0  0  0  0  0  0  0  0  0  0
    3.5853   -0.5100    0.0000 C   0  0  0  0  0  0  0  0  0  0  0  0
    3.5853   -2.0100    0.0000 O   0  0  0  0  0  0  0  0  0  0  0  0
    2.2863    0.2400    0.0000 N   0  0  0  0  0  0  0  0  0  0  0  0
    0.9873   -0.5100    0.0000 C   0  0  0  0  0  0  0  0  0  0  0  0
   -0.3118    0.2400    0.0000 C   0  0  0  0  0  0  0  0  0  0  0  0
   -1.6108   -0.5100    0.0000 O   0  0  0  0  0  0  0  0  0  0  0  0
  1  2  1  0
  2  3  1  0
  3  4  1  0
  4  5  1  0
  5  6  1  0
  6  7  1  0
  7  8  1  0
  8  9  1  0
  9 10  1  0
 10 11  1  0
 11 12  1  0
 12 13  1  0
 13 14  1  0
 14 15  1  0
 15 16  1  0
 16 17  1  0
 17 18  1  0
 18 19  2  0
 18 20  1  0
 20 21  1  0
 21 22  1  0
 22 23  1  0
M  END
>  <cdk:Title>  (493) 
Stearoylethanolamide

>  <1A2>  (493) 
N

>  <2A6>  (493) 
N

>  <2B6>  (493) 
N

>  <2C8>  (493) 
N

>  <2C9>  (493) 
N

>  <2C19>  (493) 
N

>  <2D6>  (493) 
N

>  <2E1>  (493) 
N

>  <3A4>  (493) 
N

>  <Citation>  (493) 
Nucleic Acids Res. 2018. Jan 4;46(D1):D608-17. PMID:29140435
Nucleic Acids Res. 2018 Jan 4;46(D1):D1074-D1082. PMID:29126136
Nucleic Acids Res., 45:D380-388 (2017).  PMID:27924025
Nucleic Acids Res. 2016 Jan 4;44(D1):D1202-13. PMID:26400175

>  <ROMol>  (493) 
<rdkit.Chem.rdchem.Mol object at 0x7c2905d5f1b0>

>  <Drug_like>  (493) 
True

$$$$
Prenyl benzoate
     RDKit          2D

 14 14  0  0  0  0  0  0  0  0999 V2000
   -3.7484    7.2112    0.0000 C   0  0  0  0  0  0  0  0  0  0  0  0
   -4.4984    5.9122    0.0000 C   0  0  0  0  0  0  0  0  0  0  0  0
   -5.9984    5.9122    0.0000 C   0  0  0  0  0  0  0  0  0  0  0  0
   -3.7484    4.6131    0.0000 C   0  0  0  0  0  0  0  0  0  0  0  0
   -2.2484    4.6131    0.0000 C   0  0  0  0  0  0  0  0  0  0  0  0
   -1.4984    3.3141    0.0000 O   0  0  0  0  0  0  0  0  0  0  0  0
    0.0016    3.3141    0.0000 C   0  0  0  0  0  0  0  0  0  0  0  0
    0.7516    2.0151    0.0000 C   0  0  0  0  0  0  0  0  0  0  0  0
    2.2524    2.0155    0.0000 C   0  0  0  0  0  0  0  0  0  0  0  0
    3.0024    0.7165    0.0000 C   0  0  0  0  0  0  0  0  0  0  0  0
    2.2516   -0.5830    0.0000 C   0  0  0  0  0  0  0  0  0  0  0  0
    0.7507   -0.5835    0.0000 C   0  0  0  0  0  0  0  0  0  0  0  0
    0.0007    0.7155    0.0000 C   0  0  0  0  0  0  0  0  0  0  0  0
    0.7516    4.6131    0.0000 O   0  0  0  0  0  0  0  0  0  0  0  0
  1  2  1  0
  2  3  1  0
  2  4  2  0
  4  5  1  0
  5  6  1  0
  6  7  1  0
  7  8  1  0
  8  9  2  0
  9 10  1  0
 10 11  2  0
 11 12  1  0
 12 13  2  0
  8 13  1  0
  7 14  2  0
M  END
>  <cdk:Title>  (494) 
Prenyl benzoate

>  <1A2>  (494) 
N

>  <2A6>  (494) 
N

>  <2B6>  (494) 
N

>  <2C8>  (494) 
N

>  <2C9>  (494) 
N

>  <2C19>  (494) 
N

>  <2D6>  (494) 
N

>  <2E1>  (494) 
N

>  <3A4>  (494) 
N

>  <Citation>  (494) 
Nucleic Acids Res. 2018. Jan 4;46(D1):D608-17. PMID:29140435
Nucleic Acids Res. 2018 Jan 4;46(D1):D1074-D1082. PMID:29126136
Nucleic Acids Res., 45:D380-388 (2017).  PMID:27924025
Nucleic Acids Res. 2016 Jan 4;44(D1):D1202-13. PMID:26400175

>  <ROMol>  (494) 
<rdkit.Chem.rdchem.Mol object at 0x7c2905d5f220>

>  <Drug_like>  (494) 
True

$$$$
8-Iso-13_14-dihydro-15-keto-PGF2a
     RDKit          2D

 25 25  0  0  0  0  0  0  0  0999 V2000
    4.0748    6.6353    0.0000 O   0  0  0  0  0  0  0  0  0  0  0  0
    2.1843    6.0465    0.0000 C   0  0  0  0  0  0  0  0  0  0  0  0
    0.8899    5.3161    0.0000 C   0  0  0  0  0  0  0  0  0  0  0  0
   -0.2225    6.3223    0.0000 C   0  0  0  0  0  0  0  0  0  0  0  0
    0.3882    7.6981    0.0000 C   0  0  0  0  0  0  0  0  0  0  0  0
   -1.0373    8.1651    0.0000 O   0  0  0  0  0  0  0  0  0  0  0  0
    1.8907    7.5257    0.0000 C   0  0  0  0  0  0  0  0  0  0  0  0
   -2.9097    5.1296    0.0000 C   0  0  0  0  0  0  0  0  0  0  0  0
   -4.1222    6.0126    0.0000 C   0  0  0  0  0  0  0  0  0  0  0  0
   -6.3707    5.0146    0.0000 C   0  0  0  0  0  0  0  0  0  0  0  0
   -6.5292    3.5230    0.0000 C   0  0  0  0  0  0  0  0  0  0  0  0
   -7.9002    2.9144    0.0000 C   0  0  0  0  0  0  0  0  0  0  0  0
   -9.1127    3.7975    0.0000 C   0  0  0  0  0  0  0  0  0  0  0  0
  -10.4837    3.1889    0.0000 C   0  0  0  0  0  0  0  0  0  0  0  0
  -11.6962    4.0720    0.0000 O   0  0  0  0  0  0  0  0  0  0  0  0
  -10.6422    1.6973    0.0000 O   0  0  0  0  0  0  0  0  0  0  0  0
    2.0420    3.7058    0.0000 C   0  0  0  0  0  0  0  0  0  0  0  0
    4.0126    3.8983    0.0000 C   0  0  0  0  0  0  0  0  0  0  0  0
    5.1646    2.2880    0.0000 C   0  0  0  0  0  0  0  0  0  0  0  0
    4.5445    0.9222    0.0000 O   0  0  0  0  0  0  0  0  0  0  0  0
    6.6575    2.4339    0.0000 C   0  0  0  0  0  0  0  0  0  0  0  0
    7.5303    1.2139    0.0000 C   0  0  0  0  0  0  0  0  0  0  0  0
    9.9786    1.4531    0.0000 C   0  0  0  0  0  0  0  0  0  0  0  0
   10.8514    0.2332    0.0000 C   0  0  0  0  0  0  0  0  0  0  0  0
   12.3443    0.3791    0.0000 C   0  0  0  0  0  0  0  0  0  0  0  0
  1  2  1  0
  2  3  1  0
  3  4  1  0
  4  5  1  0
  5  6  1  0
  5  7  1  0
  2  7  1  0
  4  8  1  0
  8  9  1  0
  9 10  2  0
 10 11  1  0
 11 12  1  0
 12 13  1  0
 13 14  1  0
 14 15  1  0
 14 16  2  0
  3 17  1  0
 17 18  1  0
 18 19  1  0
 19 20  2  0
 19 21  1  0
 21 22  1  0
 22 23  1  0
 23 24  1  0
 24 25  1  0
M  END
>  <cdk:Title>  (495) 
8-Iso-13_14-dihydro-15-keto-PGF2a

>  <1A2>  (495) 
N

>  <2A6>  (495) 
N

>  <2B6>  (495) 
N

>  <2C8>  (495) 
N

>  <2C9>  (495) 
N

>  <2C19>  (495) 
N

>  <2D6>  (495) 
N

>  <2E1>  (495) 
N

>  <3A4>  (495) 
N

>  <Citation>  (495) 
Nucleic Acids Res. 2018. Jan 4;46(D1):D608-17. PMID:29140435
Nucleic Acids Res. 2018 Jan 4;46(D1):D1074-D1082. PMID:29126136
Nucleic Acids Res., 45:D380-388 (2017).  PMID:27924025
Nucleic Acids Res. 2016 Jan 4;44(D1):D1202-13. PMID:26400175

>  <ROMol>  (495) 
<rdkit.Chem.rdchem.Mol object at 0x7c2905d5f290>

>  <Drug_like>  (495) 
True

$$$$
CJ-31335
     RDKit          2D

 20 21  0  0  0  0  0  0  0  0999 V2000
    0.2357   -1.1221    0.0000 C   0  0  0  0  0  0  0  0  0  0  0  0
   -1.0632   -0.3719    0.0000 O   0  0  0  0  0  0  0  0  0  0  0  0
   -1.0630    1.1281    0.0000 P   0  0  0  0  0  0  0  0  0  0  0  0
    0.2362    1.8779    0.0000 C   0  0  0  0  0  0  0  0  0  0  0  0
    0.2367    3.3787    0.0000 C   0  0  0  0  0  0  0  0  0  0  0  0
    1.5362    4.1296    0.0000 C   0  0  0  0  0  0  0  0  0  0  0  0
    2.8352    3.3796    0.0000 C   0  0  0  0  0  0  0  0  0  0  0  0
    2.8348    1.8787    0.0000 C   0  0  0  0  0  0  0  0  0  0  0  0
    1.5352    1.1279    0.0000 C   0  0  0  0  0  0  0  0  0  0  0  0
   -1.5758    2.5377    0.0000 O   0  0  0  0  0  0  0  0  0  0  0  0
   -3.0529    2.7985    0.0000 C   0  0  0  0  0  0  0  0  0  0  0  0
   -4.0180    1.6491    0.0000 C   0  0  0  0  0  0  0  0  0  0  0  0
   -5.4961    1.9092    0.0000 C   0  0  0  0  0  0  0  0  0  0  0  0
   -6.0092    3.3187    0.0000 C   0  0  0  0  0  0  0  0  0  0  0  0
   -5.0441    4.4681    0.0000 C   0  0  0  0  0  0  0  0  0  0  0  0
   -3.5660    4.2080    0.0000 C   0  0  0  0  0  0  0  0  0  0  0  0
   -2.6020    5.3572    0.0000 Cl  0  0  0  0  0  0  0  0  0  0  0  0
   -7.4863    3.5794    0.0000 Br  0  0  0  0  0  0  0  0  0  0  0  0
   -6.4601    0.7600    0.0000 Cl  0  0  0  0  0  0  0  0  0  0  0  0
   -2.5402    0.8679    0.0000 S   0  0  0  0  0  0  0  0  0  0  0  0
  1  2  1  0
  3  2  1  1
  3  4  1  0
  4  5  2  0
  5  6  1  0
  6  7  2  0
  7  8  1  0
  8  9  2  0
  4  9  1  0
  3 10  1  0
 10 11  1  0
 11 12  2  0
 12 13  1  0
 13 14  2  0
 14 15  1  0
 15 16  2  0
 11 16  1  0
 16 17  1  0
 14 18  1  0
 13 19  1  0
  3 20  2  0
M  END
>  <cdk:Title>  (496) 
CJ-31335

>  <1A2>  (496) 
N

>  <2A6>  (496) 
N

>  <2B6>  (496) 
N

>  <2C8>  (496) 
N

>  <2C9>  (496) 
N

>  <2C19>  (496) 
N

>  <2D6>  (496) 
N

>  <2E1>  (496) 
N

>  <3A4>  (496) 
N

>  <Citation>  (496) 
Nucleic Acids Res. 2018. Jan 4;46(D1):D608-17. PMID:29140435
Nucleic Acids Res. 2018 Jan 4;46(D1):D1074-D1082. PMID:29126136
Nucleic Acids Res., 45:D380-388 (2017).  PMID:27924025
Nucleic Acids Res. 2016 Jan 4;44(D1):D1202-13. PMID:26400175

>  <ROMol>  (496) 
<rdkit.Chem.rdchem.Mol object at 0x7c2905d5f300>

>  <Drug_like>  (496) 
True

$$$$
SCHEMBL18963491
     RDKit          2D

 11 11  0  0  0  0  0  0  0  0999 V2000
   -2.6703   -1.9086    0.0000 C   0  0  0  0  0  0  0  0  0  0  0  0
   -1.1782   -1.7556    0.0000 C   0  0  0  0  0  0  0  0  0  0  0  0
   -0.2995   -2.9713    0.0000 C   0  0  0  0  0  0  0  0  0  0  0  0
   -0.9131   -4.3401    0.0000 O   0  0  0  0  0  0  0  0  0  0  0  0
    1.1926   -2.8183    0.0000 O   0  0  0  0  0  0  0  0  0  0  0  0
    2.0713   -4.0340    0.0000 C   0  0  0  0  0  0  0  0  0  0  0  0
    4.0409   -3.8320    0.0000 C   0  0  0  0  0  0  0  0  0  0  0  0
    3.7380   -2.3672    0.0000 C   0  0  0  0  0  0  0  0  0  0  0  0
    5.0370   -1.6172    0.0000 C   0  0  0  0  0  0  0  0  0  0  0  0
    6.1454   -2.6170    0.0000 C   0  0  0  0  0  0  0  0  0  0  0  0
    5.5375   -3.9841    0.0000 O   0  0  0  0  0  0  0  0  0  0  0  0
  1  2  1  0
  2  3  1  0
  3  4  2  0
  3  5  1  0
  5  6  1  0
  6  7  1  0
  7  8  1  0
  8  9  1  0
  9 10  1  0
 10 11  1  0
  7 11  1  0
M  END
>  <cdk:Title>  (497) 
SCHEMBL18963491

>  <1A2>  (497) 
N

>  <2A6>  (497) 
N

>  <2B6>  (497) 
N

>  <2C8>  (497) 
N

>  <2C9>  (497) 
N

>  <2C19>  (497) 
N

>  <2D6>  (497) 
N

>  <2E1>  (497) 
N

>  <3A4>  (497) 
N

>  <Citation>  (497) 
Nucleic Acids Res. 2018. Jan 4;46(D1):D608-17. PMID:29140435
Nucleic Acids Res. 2018 Jan 4;46(D1):D1074-D1082. PMID:29126136
Nucleic Acids Res., 45:D380-388 (2017).  PMID:27924025
Nucleic Acids Res. 2016 Jan 4;44(D1):D1202-13. PMID:26400175

>  <ROMol>  (497) 
<rdkit.Chem.rdchem.Mol object at 0x7c2905d5f370>

>  <Drug_like>  (497) 
True

$$$$
6-trans-12-Epi-leukotriene b4
     RDKit          2D

 24 23  0  0  0  0  0  0  0  0999 V2000
   18.4938   16.2188    0.0000 O   0  0  0  0  0  0  0  0  0  0  0  0
   17.5296   17.3678    0.0000 C   0  0  0  0  0  0  0  0  0  0  0  0
   16.2306   18.1178    0.0000 C   0  0  0  0  0  0  0  0  0  0  0  0
   14.1001   16.8878    0.0000 C   0  0  0  0  0  0  0  0  0  0  0  0
   12.8011   17.6378    0.0000 C   0  0  0  0  0  0  0  0  0  0  0  0
   11.5021   16.8878    0.0000 C   0  0  0  0  0  0  0  0  0  0  0  0
   10.2030   17.6378    0.0000 O   0  0  0  0  0  0  0  0  0  0  0  0
   11.5021   15.3878    0.0000 O   0  0  0  0  0  0  0  0  0  0  0  0
   18.8286   18.1178    0.0000 C   0  0  0  0  0  0  0  0  0  0  0  0
   20.1277   17.3678    0.0000 C   0  0  0  0  0  0  0  0  0  0  0  0
   20.1277   15.8678    0.0000 C   0  0  0  0  0  0  0  0  0  0  0  0
   21.4267   15.1178    0.0000 C   0  0  0  0  0  0  0  0  0  0  0  0
   21.4267   13.6178    0.0000 C   0  0  0  0  0  0  0  0  0  0  0  0
   22.7257   12.8678    0.0000 C   0  0  0  0  0  0  0  0  0  0  0  0
   22.7257   11.3678    0.0000 C   0  0  0  0  0  0  0  0  0  0  0  0
   24.0248   10.6178    0.0000 C   0  0  0  0  0  0  0  0  0  0  0  0
   24.0248    9.1178    0.0000 C   0  0  0  0  0  0  0  0  0  0  0  0
   25.3238    8.3678    0.0000 C   0  0  0  0  0  0  0  0  0  0  0  0
   27.8699    9.8378    0.0000 C   0  0  0  0  0  0  0  0  0  0  0  0
   27.8699   11.8178    0.0000 C   0  0  0  0  0  0  0  0  0  0  0  0
   30.0004   13.0478    0.0000 C   0  0  0  0  0  0  0  0  0  0  0  0
   30.0004   14.5478    0.0000 C   0  0  0  0  0  0  0  0  0  0  0  0
   31.2994   15.2978    0.0000 C   0  0  0  0  0  0  0  0  0  0  0  0
   21.2485   11.6283    0.0000 O   0  0  0  0  0  0  0  0  0  0  0  0
  1  2  1  0
  2  3  1  0
  3  4  1  0
  4  5  1  0
  5  6  1  0
  6  7  1  0
  6  8  2  0
  2  9  1  0
  9 10  2  0
 10 11  1  0
 11 12  2  0
 12 13  1  0
 13 14  2  0
 14 15  1  0
 15 16  1  0
 16 17  1  0
 17 18  2  0
 18 19  1  0
 19 20  1  0
 20 21  1  0
 21 22  1  0
 22 23  1  0
 15 24  1  0
M  END
>  <cdk:Title>  (498) 
6-trans-12-Epi-leukotriene b4

>  <1A2>  (498) 
N

>  <2A6>  (498) 
N

>  <2B6>  (498) 
N

>  <2C8>  (498) 
N

>  <2C9>  (498) 
N

>  <2C19>  (498) 
N

>  <2D6>  (498) 
N

>  <2E1>  (498) 
N

>  <3A4>  (498) 
N

>  <Citation>  (498) 
Nucleic Acids Res. 2018. Jan 4;46(D1):D608-17. PMID:29140435
Nucleic Acids Res. 2018 Jan 4;46(D1):D1074-D1082. PMID:29126136
Nucleic Acids Res., 45:D380-388 (2017).  PMID:27924025
Nucleic Acids Res. 2016 Jan 4;44(D1):D1202-13. PMID:26400175

>  <ROMol>  (498) 
<rdkit.Chem.rdchem.Mol object at 0x7c2905d5f3e0>

>  <Drug_like>  (498) 
True

$$$$
4-Octen-3-one
     RDKit          2D

  9  8  0  0  0  0  0  0  0  0999 V2000
   10.3923   -0.0000    0.0000 C   0  0  0  0  0  0  0  0  0  0  0  0
    9.0933   -0.7500    0.0000 C   0  0  0  0  0  0  0  0  0  0  0  0
    7.7942   -0.0000    0.0000 C   0  0  0  0  0  0  0  0  0  0  0  0
    6.4952   -0.7500    0.0000 C   0  0  0  0  0  0  0  0  0  0  0  0
    5.1962   -0.0000    0.0000 C   0  0  0  0  0  0  0  0  0  0  0  0
    3.8971   -0.7500    0.0000 C   0  0  0  0  0  0  0  0  0  0  0  0
    2.5981   -0.0000    0.0000 C   0  0  0  0  0  0  0  0  0  0  0  0
    1.2990   -0.7500    0.0000 C   0  0  0  0  0  0  0  0  0  0  0  0
    3.8971   -2.2500    0.0000 O   0  0  0  0  0  0  0  0  0  0  0  0
  1  2  1  0
  2  3  1  0
  3  4  1  0
  4  5  2  0
  5  6  1  0
  6  7  1  0
  7  8  1  0
  6  9  2  0
M  END
>  <cdk:Title>  (499) 
4-Octen-3-one

>  <1A2>  (499) 
N

>  <2A6>  (499) 
N

>  <2B6>  (499) 
N

>  <2C8>  (499) 
N

>  <2C9>  (499) 
N

>  <2C19>  (499) 
N

>  <2D6>  (499) 
N

>  <2E1>  (499) 
N

>  <3A4>  (499) 
N

>  <Citation>  (499) 
Nucleic Acids Res. 2018. Jan 4;46(D1):D608-17. PMID:29140435
Nucleic Acids Res. 2018 Jan 4;46(D1):D1074-D1082. PMID:29126136
Nucleic Acids Res., 45:D380-388 (2017).  PMID:27924025
Nucleic Acids Res. 2016 Jan 4;44(D1):D1202-13. PMID:26400175

>  <ROMol>  (499) 
<rdkit.Chem.rdchem.Mol object at 0x7c2905d5f450>

>  <Drug_like>  (499) 
True

$$$$
Malonic acid
     RDKit          2D

  7  6  0  0  0  0  0  0  0  0999 V2000
    6.4952   -0.7500    0.0000 O   0  0  0  0  0  0  0  0  0  0  0  0
    5.1962   -0.0000    0.0000 C   0  0  0  0  0  0  0  0  0  0  0  0
    5.1962    1.5000    0.0000 O   0  0  0  0  0  0  0  0  0  0  0  0
    3.8971   -0.7500    0.0000 C   0  0  0  0  0  0  0  0  0  0  0  0
    2.5981   -0.0000    0.0000 C   0  0  0  0  0  0  0  0  0  0  0  0
    1.2990   -0.7500    0.0000 O   0  0  0  0  0  0  0  0  0  0  0  0
    2.5981    1.5000    0.0000 O   0  0  0  0  0  0  0  0  0  0  0  0
  1  2  1  0
  2  3  2  0
  2  4  1  0
  4  5  1  0
  5  6  1  0
  5  7  2  0
M  END
>  <cdk:Title>  (500) 
Malonic acid

>  <1A2>  (500) 
N

>  <2A6>  (500) 
N

>  <2B6>  (500) 
N

>  <2C8>  (500) 
N

>  <2C9>  (500) 
N

>  <2C19>  (500) 
N

>  <2D6>  (500) 
N

>  <2E1>  (500) 
N

>  <3A4>  (500) 
N

>  <Citation>  (500) 
Nucleic Acids Res. 2018. Jan 4;46(D1):D608-17. PMID:29140435
Nucleic Acids Res. 2018 Jan 4;46(D1):D1074-D1082. PMID:29126136
Nucleic Acids Res., 45:D380-388 (2017).  PMID:27924025
Nucleic Acids Res. 2016 Jan 4;44(D1):D1202-13. PMID:26400175

>  <ROMol>  (500) 
<rdkit.Chem.rdchem.Mol object at 0x7c2905d5f4c0>

>  <Drug_like>  (500) 
True

$$$$
Gamma-Cadinene
     RDKit          2D

 15 16  0  0  0  0  0  0  0  0999 V2000
    0.2683    1.5558    0.0000 C   0  0  0  0  0  0  0  0  0  0  0  0
   -1.0317    0.8058    0.0000 C   0  0  0  0  0  0  0  0  0  0  0  0
   -1.0317   -0.6942    0.0000 C   0  0  0  0  0  0  0  0  0  0  0  0
    0.2683   -1.4442    0.0000 C   0  0  0  0  0  0  0  0  0  0  0  0
    1.5683   -0.6942    0.0000 C   0  0  0  0  0  0  0  0  0  0  0  0
    1.5683    0.8058    0.0000 C   0  0  0  0  0  0  0  0  0  0  0  0
    2.8683    1.5558    0.0000 C   0  0  0  0  0  0  0  0  0  0  0  0
    4.1683    0.8058    0.0000 C   0  0  0  0  0  0  0  0  0  0  0  0
    4.1683   -0.6942    0.0000 C   0  0  0  0  0  0  0  0  0  0  0  0
    2.8683   -1.4442    0.0000 C   0  0  0  0  0  0  0  0  0  0  0  0
    1.5957   -2.9612    0.0000 C   0  0  0  0  0  0  0  0  0  0  0  0
    2.1089   -4.3706    0.0000 C   0  0  0  0  0  0  0  0  0  0  0  0
    0.8456   -1.6622    0.0000 C   0  0  0  0  0  0  0  0  0  0  0  0
    2.8683    3.0558    0.0000 C   0  0  0  0  0  0  0  0  0  0  0  0
   -2.3307   -1.4445    0.0000 C   0  0  0  0  0  0  0  0  0  0  0  0
  1  2  1  0
  2  3  1  0
  3  4  2  0
  4  5  1  0
  5  6  1  0
  1  6  1  0
  6  7  1  0
  7  8  1  0
  8  9  1  0
  9 10  1  0
  5 10  1  0
 10 11  1  0
 11 12  1  0
 11 13  1  0
  7 14  2  0
  3 15  1  0
M  END
>  <cdk:Title>  (501) 
Gamma-Cadinene

>  <1A2>  (501) 
N

>  <2A6>  (501) 
N

>  <2B6>  (501) 
N

>  <2C8>  (501) 
N

>  <2C9>  (501) 
N

>  <2C19>  (501) 
N

>  <2D6>  (501) 
N

>  <2E1>  (501) 
N

>  <3A4>  (501) 
N

>  <Citation>  (501) 
Nucleic Acids Res. 2018. Jan 4;46(D1):D608-17. PMID:29140435
Nucleic Acids Res. 2018 Jan 4;46(D1):D1074-D1082. PMID:29126136
Nucleic Acids Res., 45:D380-388 (2017).  PMID:27924025
Nucleic Acids Res. 2016 Jan 4;44(D1):D1202-13. PMID:26400175

>  <ROMol>  (501) 
<rdkit.Chem.rdchem.Mol object at 0x7c2905d5f680>

>  <Drug_like>  (501) 
True

$$$$
(2S)-2-Amino-3-[(3-methylbut-2-en-1-yl)sulfanyl]propanoic acid
     RDKit          2D

 12 11  0  0  0  0  0  0  0  0999 V2000
   10.3923   -1.8991    0.0000 C   0  0  0  0  0  0  0  0  0  0  0  0
   10.3923   -0.3991    0.0000 C   0  0  0  0  0  0  0  0  0  0  0  0
   11.6913    0.3509    0.0000 C   0  0  0  0  0  0  0  0  0  0  0  0
    9.0933    0.3509    0.0000 C   0  0  0  0  0  0  0  0  0  0  0  0
    7.7942   -0.3991    0.0000 C   0  0  0  0  0  0  0  0  0  0  0  0
    6.0795    0.5909    0.0000 S   0  0  0  0  0  0  0  0  0  0  0  0
    4.7805   -0.1591    0.0000 C   0  0  0  0  0  0  0  0  0  0  0  0
    3.4814    0.5909    0.0000 C   0  0  0  0  0  0  0  0  0  0  0  0
    4.4456    1.7400    0.0000 N   0  0  0  0  0  0  0  0  0  0  0  0
    2.1824   -0.1591    0.0000 C   0  0  0  0  0  0  0  0  0  0  0  0
    2.1824   -1.6591    0.0000 O   0  0  0  0  0  0  0  0  0  0  0  0
    0.8833    0.5909    0.0000 O   0  0  0  0  0  0  0  0  0  0  0  0
  1  2  1  0
  2  3  1  0
  2  4  2  0
  4  5  1  0
  5  6  1  0
  6  7  1  0
  7  8  1  0
  8  9  1  0
  8 10  1  0
 10 11  2  0
 10 12  1  0
M  END
>  <cdk:Title>  (502) 
(2S)-2-Amino-3-[(3-methylbut-2-en-1-yl)sulfanyl]propanoic acid

>  <1A2>  (502) 
N

>  <2A6>  (502) 
N

>  <2B6>  (502) 
N

>  <2C8>  (502) 
N

>  <2C9>  (502) 
N

>  <2C19>  (502) 
N

>  <2D6>  (502) 
N

>  <2E1>  (502) 
N

>  <3A4>  (502) 
N

>  <Citation>  (502) 
Nucleic Acids Res. 2018. Jan 4;46(D1):D608-17. PMID:29140435
Nucleic Acids Res. 2018 Jan 4;46(D1):D1074-D1082. PMID:29126136
Nucleic Acids Res., 45:D380-388 (2017).  PMID:27924025
Nucleic Acids Res. 2016 Jan 4;44(D1):D1202-13. PMID:26400175

>  <ROMol>  (502) 
<rdkit.Chem.rdchem.Mol object at 0x7c2905d5f6f0>

>  <Drug_like>  (502) 
True

$$$$
L-Homocysteine thiolactone
     RDKit          2D

  7  7  0  0  0  0  0  0  0  0999 V2000
    1.6871    1.3172    0.0000 C   0  0  0  0  0  0  0  0  0  0  0  0
    1.0842    2.6929    0.0000 S   0  0  0  0  0  0  0  0  0  0  0  0
   -0.4087    2.5272    0.0000 C   0  0  0  0  0  0  0  0  0  0  0  0
   -0.7203    1.0674    0.0000 C   0  0  0  0  0  0  0  0  0  0  0  0
    0.5787    0.3174    0.0000 C   0  0  0  0  0  0  0  0  0  0  0  0
   -0.5847   -1.2848    0.0000 N   0  0  0  0  0  0  0  0  0  0  0  0
    3.1535    1.0016    0.0000 O   0  0  0  0  0  0  0  0  0  0  0  0
  1  2  1  0
  2  3  1  0
  3  4  1  0
  4  5  1  0
  1  5  1  0
  5  6  1  0
  1  7  2  0
M  END
>  <cdk:Title>  (503) 
L-Homocysteine thiolactone

>  <1A2>  (503) 
N

>  <2A6>  (503) 
N

>  <2B6>  (503) 
N

>  <2C8>  (503) 
N

>  <2C9>  (503) 
N

>  <2C19>  (503) 
N

>  <2D6>  (503) 
N

>  <2E1>  (503) 
N

>  <3A4>  (503) 
N

>  <Citation>  (503) 
Nucleic Acids Res. 2018. Jan 4;46(D1):D608-17. PMID:29140435
Nucleic Acids Res. 2018 Jan 4;46(D1):D1074-D1082. PMID:29126136
Nucleic Acids Res., 45:D380-388 (2017).  PMID:27924025
Nucleic Acids Res. 2016 Jan 4;44(D1):D1202-13. PMID:26400175

>  <ROMol>  (503) 
<rdkit.Chem.rdchem.Mol object at 0x7c2905d5f840>

>  <Drug_like>  (503) 
True

$$$$
(3R)-3-Hydroxydodecanoic acid
     RDKit          2D

 15 14  0  0  0  0  0  0  0  0999 V2000
   12.6445   -0.1684    0.0000 C   0  0  0  0  0  0  0  0  0  0  0  0
   13.8745    1.9620    0.0000 C   0  0  0  0  0  0  0  0  0  0  0  0
   15.3745    1.9620    0.0000 C   0  0  0  0  0  0  0  0  0  0  0  0
   16.1245    3.2611    0.0000 C   0  0  0  0  0  0  0  0  0  0  0  0
   10.6645   -0.1684    0.0000 C   0  0  0  0  0  0  0  0  0  0  0  0
    9.6745   -1.8831    0.0000 C   0  0  0  0  0  0  0  0  0  0  0  0
    7.6945   -1.8831    0.0000 C   0  0  0  0  0  0  0  0  0  0  0  0
    6.7045   -3.5978    0.0000 C   0  0  0  0  0  0  0  0  0  0  0  0
    4.7245   -3.5978    0.0000 C   0  0  0  0  0  0  0  0  0  0  0  0
    3.9745   -4.8969    0.0000 C   0  0  0  0  0  0  0  0  0  0  0  0
    3.7140   -6.3741    0.0000 O   0  0  0  0  0  0  0  0  0  0  0  0
    2.4745   -4.8969    0.0000 C   0  0  0  0  0  0  0  0  0  0  0  0
    1.7245   -3.5978    0.0000 C   0  0  0  0  0  0  0  0  0  0  0  0
    2.4745   -2.2988    0.0000 O   0  0  0  0  0  0  0  0  0  0  0  0
    0.2245   -3.5978    0.0000 O   0  0  0  0  0  0  0  0  0  0  0  0
  1  2  1  0
  2  3  1  0
  3  4  1  0
  1  5  1  0
  5  6  1  0
  6  7  1  0
  7  8  1  0
  8  9  1  0
  9 10  1  0
 10 11  1  0
 10 12  1  0
 12 13  1  0
 13 14  2  0
 13 15  1  0
M  END
>  <cdk:Title>  (504) 
(3R)-3-Hydroxydodecanoic acid

>  <1A2>  (504) 
N

>  <2A6>  (504) 
N

>  <2B6>  (504) 
N

>  <2C8>  (504) 
N

>  <2C9>  (504) 
N

>  <2C19>  (504) 
N

>  <2D6>  (504) 
N

>  <2E1>  (504) 
N

>  <3A4>  (504) 
N

>  <Citation>  (504) 
Nucleic Acids Res. 2018. Jan 4;46(D1):D608-17. PMID:29140435
Nucleic Acids Res. 2018 Jan 4;46(D1):D1074-D1082. PMID:29126136
Nucleic Acids Res., 45:D380-388 (2017).  PMID:27924025
Nucleic Acids Res. 2016 Jan 4;44(D1):D1202-13. PMID:26400175

>  <ROMol>  (504) 
<rdkit.Chem.rdchem.Mol object at 0x7c2905d5f8b0>

>  <Drug_like>  (504) 
True

$$$$
UNII-408af93g1u component rnfxbugjwzoujt-zcfiwibfsa-N
     RDKit          2D

  8  7  0  0  0  0  0  0  0  0999 V2000
    4.2144   -3.0482    0.0000 C   0  0  0  0  0  0  0  0  0  0  0  0
    5.5135   -2.2982    0.0000 C   0  0  0  0  0  0  0  0  0  0  0  0
    5.5135   -0.7982    0.0000 S   0  0  0  0  0  0  0  0  0  0  0  0
    7.6439    0.4318    0.0000 C   0  0  0  0  0  0  0  0  0  0  0  0
    8.1569   -0.9777    0.0000 C   0  0  0  0  0  0  0  0  0  0  0  0
    7.6439    1.9318    0.0000 C   0  0  0  0  0  0  0  0  0  0  0  0
    6.3448    2.6818    0.0000 C   0  0  0  0  0  0  0  0  0  0  0  0
    6.3448    4.1818    0.0000 O   0  0  0  0  0  0  0  0  0  0  0  0
  1  2  1  0
  2  3  1  0
  3  4  1  0
  4  5  1  0
  4  6  1  0
  6  7  1  0
  7  8  1  0
M  END
>  <cdk:Title>  (505) 
UNII-408af93g1u component rnfxbugjwzoujt-zcfiwibfsa-N

>  <1A2>  (505) 
N

>  <2A6>  (505) 
N

>  <2B6>  (505) 
N

>  <2C8>  (505) 
N

>  <2C9>  (505) 
N

>  <2C19>  (505) 
N

>  <2D6>  (505) 
N

>  <2E1>  (505) 
N

>  <3A4>  (505) 
N

>  <Citation>  (505) 
Nucleic Acids Res. 2018. Jan 4;46(D1):D608-17. PMID:29140435
Nucleic Acids Res. 2018 Jan 4;46(D1):D1074-D1082. PMID:29126136
Nucleic Acids Res., 45:D380-388 (2017).  PMID:27924025
Nucleic Acids Res. 2016 Jan 4;44(D1):D1202-13. PMID:26400175

>  <ROMol>  (505) 
<rdkit.Chem.rdchem.Mol object at 0x7c2905d5f920>

>  <Drug_like>  (505) 
True

$$$$
(2S_3S)-1-[(2S)-1-(2-Aminoacetyl)pyrrolidine-2-carbonyl]-3-hydroxypyrrolidine-2-
     RDKit          2D

 20 21  0  0  0  0  0  0  0  0999 V2000
    3.3990   -1.7460    0.0000 C   0  0  0  0  0  0  0  0  0  0  0  0
    4.8912   -1.5936    0.0000 O   0  0  0  0  0  0  0  0  0  0  0  0
    2.5209   -0.5299    0.0000 O   0  0  0  0  0  0  0  0  0  0  0  0
    2.5883   -3.5524    0.0000 C   0  0  0  0  0  0  0  0  0  0  0  0
    1.6964   -4.7610    0.0000 N   0  0  0  0  0  0  0  0  0  0  0  0
    2.5844   -5.9724    0.0000 C   0  0  0  0  0  0  0  0  0  0  0  0
    4.0052   -5.5147    0.0000 C   0  0  0  0  0  0  0  0  0  0  0  0
    4.0076   -4.0147    0.0000 C   0  0  0  0  0  0  0  0  0  0  0  0
    5.4991   -4.1734    0.0000 O   0  0  0  0  0  0  0  0  0  0  0  0
   -0.2836   -4.7579    0.0000 C   0  0  0  0  0  0  0  0  0  0  0  0
   -1.0316   -3.4576    0.0000 O   0  0  0  0  0  0  0  0  0  0  0  0
   -1.0357   -6.0557    0.0000 C   0  0  0  0  0  0  0  0  0  0  0  0
   -2.2533   -5.1724    0.0000 N   0  0  0  0  0  0  0  0  0  0  0  0
   -3.4657   -6.0490    0.0000 C   0  0  0  0  0  0  0  0  0  0  0  0
   -3.0096   -7.4803    0.0000 C   0  0  0  0  0  0  0  0  0  0  0  0
   -1.5096   -7.4844    0.0000 C   0  0  0  0  0  0  0  0  0  0  0  0
   -2.2517   -3.1924    0.0000 C   0  0  0  0  0  0  0  0  0  0  0  0
   -3.5501   -2.4413    0.0000 C   0  0  0  0  0  0  0  0  0  0  0  0
   -3.5489   -0.9413    0.0000 N   0  0  0  0  0  0  0  0  0  0  0  0
   -0.9521   -2.4434    0.0000 O   0  0  0  0  0  0  0  0  0  0  0  0
  1  2  2  0
  1  3  1  0
  1  4  1  0
  4  5  1  0
  5  6  1  0
  6  7  1  0
  7  8  1  0
  4  8  1  0
  8  9  1  0
  5 10  1  0
 10 11  2  0
 10 12  1  0
 12 13  1  0
 13 14  1  0
 14 15  1  0
 15 16  1  0
 12 16  1  0
 13 17  1  0
 17 18  1  0
 18 19  1  0
 17 20  2  0
M  END
>  <cdk:Title>  (506) 
(2S_3S)-1-[(2S)-1-(2-Aminoacetyl)pyrrolidine-2-carbonyl]-3-hydroxypyrrolidine-2-carboxylic acid

>  <1A2>  (506) 
N

>  <2A6>  (506) 
N

>  <2B6>  (506) 
N

>  <2C8>  (506) 
N

>  <2C9>  (506) 
N

>  <2C19>  (506) 
N

>  <2D6>  (506) 
N

>  <2E1>  (506) 
N

>  <3A4>  (506) 
N

>  <Citation>  (506) 
Nucleic Acids Res. 2018. Jan 4;46(D1):D608-17. PMID:29140435
Nucleic Acids Res. 2018 Jan 4;46(D1):D1074-D1082. PMID:29126136
Nucleic Acids Res., 45:D380-388 (2017).  PMID:27924025
Nucleic Acids Res. 2016 Jan 4;44(D1):D1202-13. PMID:26400175

>  <ROMol>  (506) 
<rdkit.Chem.rdchem.Mol object at 0x7c2905d5fa70>

>  <Drug_like>  (506) 
True

$$$$
4-Ethyl-2-methylthiazole
     RDKit          2D

  8  8  0  0  0  0  0  0  0  0999 V2000
    3.4572    1.9411    0.0000 C   0  0  0  0  0  0  0  0  0  0  0  0
    2.3449    0.9347    0.0000 C   0  0  0  0  0  0  0  0  0  0  0  0
    2.5107   -0.5582    0.0000 S   0  0  0  0  0  0  0  0  0  0  0  0
    1.1349   -1.1611    0.0000 C   0  0  0  0  0  0  0  0  0  0  0  0
    0.1352   -0.0527    0.0000 C   0  0  0  0  0  0  0  0  0  0  0  0
    0.8852    1.2463    0.0000 N   0  0  0  0  0  0  0  0  0  0  0  0
   -1.3565   -0.2102    0.0000 C   0  0  0  0  0  0  0  0  0  0  0  0
   -2.2387    1.0029    0.0000 C   0  0  0  0  0  0  0  0  0  0  0  0
  1  2  1  0
  2  3  1  0
  3  4  1  0
  4  5  2  0
  5  6  1  0
  2  6  2  0
  5  7  1  0
  7  8  1  0
M  END
>  <cdk:Title>  (507) 
4-Ethyl-2-methylthiazole

>  <1A2>  (507) 
N

>  <2A6>  (507) 
N

>  <2B6>  (507) 
N

>  <2C8>  (507) 
N

>  <2C9>  (507) 
N

>  <2C19>  (507) 
N

>  <2D6>  (507) 
N

>  <2E1>  (507) 
N

>  <3A4>  (507) 
N

>  <Citation>  (507) 
Nucleic Acids Res. 2018. Jan 4;46(D1):D608-17. PMID:29140435
Nucleic Acids Res. 2018 Jan 4;46(D1):D1074-D1082. PMID:29126136
Nucleic Acids Res., 45:D380-388 (2017).  PMID:27924025
Nucleic Acids Res. 2016 Jan 4;44(D1):D1202-13. PMID:26400175

>  <ROMol>  (507) 
<rdkit.Chem.rdchem.Mol object at 0x7c2905d5fae0>

>  <Drug_like>  (507) 
True

$$$$
Isocycloheterophyllin
     RDKit          2D

 37 41  0  0  0  0  0  0  0  0999 V2000
    7.3746    6.2747    0.0000 C   0  0  0  0  0  0  0  0  0  0  0  0
    7.1511    4.7914    0.0000 C   0  0  0  0  0  0  0  0  0  0  0  0
    8.3238    3.8562    0.0000 C   0  0  0  0  0  0  0  0  0  0  0  0
    5.7548    4.2434    0.0000 C   0  0  0  0  0  0  0  0  0  0  0  0
    4.5820    5.1786    0.0000 C   0  0  0  0  0  0  0  0  0  0  0  0
    2.7389    4.4553    0.0000 C   0  0  0  0  0  0  0  0  0  0  0  0
    1.5661    5.3905    0.0000 C   0  0  0  0  0  0  0  0  0  0  0  0
    0.1698    4.8425    0.0000 C   0  0  0  0  0  0  0  0  0  0  0  0
   -1.0029    5.7777    0.0000 C   0  0  0  0  0  0  0  0  0  0  0  0
   -2.3992    5.2297    0.0000 C   0  0  0  0  0  0  0  0  0  0  0  0
   -3.4195    6.3293    0.0000 C   0  0  0  0  0  0  0  0  0  0  0  0
   -4.9153    6.2172    0.0000 C   0  0  0  0  0  0  0  0  0  0  0  0
   -5.6653    7.5162    0.0000 C   0  0  0  0  0  0  0  0  0  0  0  0
   -7.1653    7.5162    0.0000 C   0  0  0  0  0  0  0  0  0  0  0  0
   -4.9153    8.8153    0.0000 C   0  0  0  0  0  0  0  0  0  0  0  0
   -5.7603    4.9778    0.0000 O   0  0  0  0  0  0  0  0  0  0  0  0
   -5.3181    3.5445    0.0000 C   0  0  0  0  0  0  0  0  0  0  0  0
   -6.4909    2.6092    0.0000 C   0  0  0  0  0  0  0  0  0  0  0  0
   -6.2673    1.1260    0.0000 C   0  0  0  0  0  0  0  0  0  0  0  0
   -4.8710    0.5780    0.0000 C   0  0  0  0  0  0  0  0  0  0  0  0
   -3.6983    1.5132    0.0000 C   0  0  0  0  0  0  0  0  0  0  0  0
   -3.9218    2.9965    0.0000 C   0  0  0  0  0  0  0  0  0  0  0  0
   -2.6228    3.7465    0.0000 C   0  0  0  0  0  0  0  0  0  0  0  0
   -1.4500    2.8112    0.0000 O   0  0  0  0  0  0  0  0  0  0  0  0
   -0.0537    3.3592    0.0000 C   0  0  0  0  0  0  0  0  0  0  0  0
    1.1190    2.4240    0.0000 C   0  0  0  0  0  0  0  0  0  0  0  0
    0.8955    0.9408    0.0000 C   0  0  0  0  0  0  0  0  0  0  0  0
    2.0682    0.0055    0.0000 C   0  0  0  0  0  0  0  0  0  0  0  0
    3.4645    0.5535    0.0000 C   0  0  0  0  0  0  0  0  0  0  0  0
    4.0471   -2.3282    0.0000 C   0  0  0  0  0  0  0  0  0  0  0  0
    4.9640    0.5909    0.0000 C   0  0  0  0  0  0  0  0  0  0  0  0
    3.6881    2.0368    0.0000 O   0  0  0  0  0  0  0  0  0  0  0  0
    2.5153    2.9720    0.0000 C   0  0  0  0  0  0  0  0  0  0  0  0
   -4.6474   -0.9053    0.0000 O   0  0  0  0  0  0  0  0  0  0  0  0
   -7.4401    0.1908    0.0000 O   0  0  0  0  0  0  0  0  0  0  0  0
   -0.7793    7.2610    0.0000 O   0  0  0  0  0  0  0  0  0  0  0  0
    1.7897    6.8737    0.0000 O   0  0  0  0  0  0  0  0  0  0  0  0
  1  2  1  0
  2  3  1  0
  2  4  2  0
  4  5  1  0
  5  6  1  0
  6  7  2  0
  7  8  1  0
  8  9  1  0
  9 10  1  0
 10 11  1  0
 11 12  1  0
 12 13  2  3
 13 14  1  0
 13 15  1  0
 12 16  1  0
 16 17  1  0
 17 18  2  0
 18 19  1  0
 19 20  2  0
 20 21  1  0
 21 22  2  0
 17 22  1  0
 22 23  1  0
 10 23  2  0
 23 24  1  0
 24 25  1  0
  8 25  2  0
 25 26  1  0
 26 27  1  0
 27 28  2  0
 28 29  1  0
 29 30  1  0
 29 31  1  0
 29 32  1  0
 32 33  1  0
  6 33  1  0
 26 33  2  0
 20 34  1  0
 19 35  1  0
  9 36  2  0
  7 37  1  0
M  END
>  <cdk:Title>  (508) 
Isocycloheterophyllin

>  <1A2>  (508) 
N

>  <2A6>  (508) 
N

>  <2B6>  (508) 
N

>  <2C8>  (508) 
N

>  <2C9>  (508) 
N

>  <2C19>  (508) 
N

>  <2D6>  (508) 
N

>  <2E1>  (508) 
N

>  <3A4>  (508) 
N

>  <Citation>  (508) 
Nucleic Acids Res. 2018. Jan 4;46(D1):D608-17. PMID:29140435
Nucleic Acids Res. 2018 Jan 4;46(D1):D1074-D1082. PMID:29126136
Nucleic Acids Res., 45:D380-388 (2017).  PMID:27924025
Nucleic Acids Res. 2016 Jan 4;44(D1):D1202-13. PMID:26400175

>  <ROMol>  (508) 
<rdkit.Chem.rdchem.Mol object at 0x7c2905d5fb50>

>  <Drug_like>  (508) 
True

$$$$
D-Xylono-1_5-lactone
     RDKit          2D

 10 10  0  0  0  0  0  0  0  0999 V2000
    0.5886   -2.1990    0.0000 C   0  0  0  0  0  0  0  0  0  0  0  0
    0.5886   -0.6990    0.0000 C   0  0  0  0  0  0  0  0  0  0  0  0
   -0.7114    0.0510    0.0000 C   0  0  0  0  0  0  0  0  0  0  0  0
   -2.0114   -0.6990    0.0000 C   0  0  0  0  0  0  0  0  0  0  0  0
   -2.0114   -2.1990    0.0000 C   0  0  0  0  0  0  0  0  0  0  0  0
   -3.3103   -2.9492    0.0000 O   0  0  0  0  0  0  0  0  0  0  0  0
   -0.7114   -2.9490    0.0000 O   0  0  0  0  0  0  0  0  0  0  0  0
   -2.5241    0.7106    0.0000 O   0  0  0  0  0  0  0  0  0  0  0  0
    0.2526    1.2002    0.0000 O   0  0  0  0  0  0  0  0  0  0  0  0
    2.0658   -0.9593    0.0000 O   0  0  0  0  0  0  0  0  0  0  0  0
  1  2  1  0
  2  3  1  0
  3  4  1  0
  4  5  1  0
  5  6  2  0
  5  7  1  0
  1  7  1  0
  4  8  1  0
  3  9  1  0
  2 10  1  0
M  END
>  <cdk:Title>  (509) 
D-Xylono-1_5-lactone

>  <1A2>  (509) 
N

>  <2A6>  (509) 
N

>  <2B6>  (509) 
N

>  <2C8>  (509) 
N

>  <2C9>  (509) 
N

>  <2C19>  (509) 
N

>  <2D6>  (509) 
N

>  <2E1>  (509) 
N

>  <3A4>  (509) 
N

>  <Citation>  (509) 
Nucleic Acids Res. 2018. Jan 4;46(D1):D608-17. PMID:29140435
Nucleic Acids Res. 2018 Jan 4;46(D1):D1074-D1082. PMID:29126136
Nucleic Acids Res., 45:D380-388 (2017).  PMID:27924025
Nucleic Acids Res. 2016 Jan 4;44(D1):D1202-13. PMID:26400175

>  <ROMol>  (509) 
<rdkit.Chem.rdchem.Mol object at 0x7c2905d5fbc0>

>  <Drug_like>  (509) 
True

$$$$
3-Chloro-L-tyrosine
     RDKit          2D

 14 14  0  0  0  0  0  0  0  0999 V2000
   -2.3355   -0.9511    0.0000 O   0  0  0  0  0  0  0  0  0  0  0  0
   -1.0301   -1.6899    0.0000 C   0  0  0  0  0  0  0  0  0  0  0  0
   -1.0172   -3.1899    0.0000 O   0  0  0  0  0  0  0  0  0  0  0  0
    0.2625   -0.9288    0.0000 C   0  0  0  0  0  0  0  0  0  0  0  0
    1.5679   -1.6677    0.0000 C   0  0  0  0  0  0  0  0  0  0  0  0
    3.2741   -0.6630    0.0000 C   0  0  0  0  0  0  0  0  0  0  0  0
    4.6441   -1.4230    0.0000 C   0  0  0  0  0  0  0  0  0  0  0  0
    5.9341   -0.6630    0.0000 C   0  0  0  0  0  0  0  0  0  0  0  0
    5.9341    0.8570    0.0000 C   0  0  0  0  0  0  0  0  0  0  0  0
    4.6441    1.6170    0.0000 C   0  0  0  0  0  0  0  0  0  0  0  0
    3.2741    0.8570    0.0000 C   0  0  0  0  0  0  0  0  0  0  0  0
    7.2364    1.6012    0.0000 O   0  0  0  0  0  0  0  0  0  0  0  0
    7.2364   -1.4073    0.0000 Cl  0  0  0  0  0  0  0  0  0  0  0  0
    1.2168    0.2284    0.0000 N   0  0  0  0  0  0  0  0  0  0  0  0
  1  2  1  0
  2  3  2  0
  2  4  1  0
  4  5  1  0
  5  6  1  0
  6  7  2  0
  7  8  1  0
  8  9  2  0
  9 10  1  0
 10 11  2  0
  6 11  1  0
  9 12  1  0
  8 13  1  0
  4 14  1  0
M  END
>  <cdk:Title>  (510) 
3-Chloro-L-tyrosine

>  <1A2>  (510) 
N

>  <2A6>  (510) 
N

>  <2B6>  (510) 
N

>  <2C8>  (510) 
N

>  <2C9>  (510) 
N

>  <2C19>  (510) 
N

>  <2D6>  (510) 
N

>  <2E1>  (510) 
N

>  <3A4>  (510) 
N

>  <Citation>  (510) 
Nucleic Acids Res. 2018. Jan 4;46(D1):D608-17. PMID:29140435
Nucleic Acids Res. 2018 Jan 4;46(D1):D1074-D1082. PMID:29126136
Nucleic Acids Res., 45:D380-388 (2017).  PMID:27924025
Nucleic Acids Res. 2016 Jan 4;44(D1):D1202-13. PMID:26400175

>  <ROMol>  (510) 
<rdkit.Chem.rdchem.Mol object at 0x7c2905d5fc30>

>  <Drug_like>  (510) 
True

$$$$
(R)-Hydratropic acid
     RDKit          2D

 11 11  0  0  0  0  0  0  0  0999 V2000
   -0.6617    3.5351    0.0000 C   0  0  0  0  0  0  0  0  0  0  0  0
   -1.6259    2.3861    0.0000 C   0  0  0  0  0  0  0  0  0  0  0  0
    0.5046    1.1561    0.0000 C   0  0  0  0  0  0  0  0  0  0  0  0
    1.8041    1.9069    0.0000 C   0  0  0  0  0  0  0  0  0  0  0  0
    3.1031    1.1569    0.0000 C   0  0  0  0  0  0  0  0  0  0  0  0
    3.1026   -0.3439    0.0000 C   0  0  0  0  0  0  0  0  0  0  0  0
    1.8031   -1.0948    0.0000 C   0  0  0  0  0  0  0  0  0  0  0  0
    0.5041   -0.3448    0.0000 C   0  0  0  0  0  0  0  0  0  0  0  0
   -2.9249    1.6361    0.0000 C   0  0  0  0  0  0  0  0  0  0  0  0
   -2.9249    0.1361    0.0000 O   0  0  0  0  0  0  0  0  0  0  0  0
   -4.2239    2.3861    0.0000 O   0  0  0  0  0  0  0  0  0  0  0  0
  1  2  1  0
  2  3  1  0
  3  4  2  0
  4  5  1  0
  5  6  2  0
  6  7  1  0
  7  8  2  0
  3  8  1  0
  2  9  1  0
  9 10  2  0
  9 11  1  0
M  END
>  <cdk:Title>  (511) 
(R)-Hydratropic acid

>  <1A2>  (511) 
N

>  <2A6>  (511) 
N

>  <2B6>  (511) 
N

>  <2C8>  (511) 
N

>  <2C9>  (511) 
N

>  <2C19>  (511) 
N

>  <2D6>  (511) 
N

>  <2E1>  (511) 
N

>  <3A4>  (511) 
N

>  <Citation>  (511) 
Nucleic Acids Res. 2018. Jan 4;46(D1):D608-17. PMID:29140435
Nucleic Acids Res. 2018 Jan 4;46(D1):D1074-D1082. PMID:29126136
Nucleic Acids Res., 45:D380-388 (2017).  PMID:27924025
Nucleic Acids Res. 2016 Jan 4;44(D1):D1202-13. PMID:26400175

>  <ROMol>  (511) 
<rdkit.Chem.rdchem.Mol object at 0x7c2905d5fca0>

>  <Drug_like>  (511) 
True

$$$$
Meso-erythritol
     RDKit          2D

  8  7  0  0  0  0  0  0  0  0999 V2000
    8.2099   -0.2400    0.0000 O   0  0  0  0  0  0  0  0  0  0  0  0
    6.9109   -0.9900    0.0000 C   0  0  0  0  0  0  0  0  0  0  0  0
    5.6118   -0.2400    0.0000 C   0  0  0  0  0  0  0  0  0  0  0  0
    6.5760    0.9091    0.0000 O   0  0  0  0  0  0  0  0  0  0  0  0
    3.8971   -1.2300    0.0000 C   0  0  0  0  0  0  0  0  0  0  0  0
    2.9329   -2.3791    0.0000 O   0  0  0  0  0  0  0  0  0  0  0  0
    2.1824   -0.2400    0.0000 C   0  0  0  0  0  0  0  0  0  0  0  0
    0.8833   -0.9900    0.0000 O   0  0  0  0  0  0  0  0  0  0  0  0
  1  2  1  0
  2  3  1  0
  3  4  1  0
  3  5  1  0
  5  6  1  0
  5  7  1  0
  7  8  1  0
M  END
>  <cdk:Title>  (512) 
Meso-erythritol

>  <1A2>  (512) 
N

>  <2A6>  (512) 
N

>  <2B6>  (512) 
N

>  <2C8>  (512) 
N

>  <2C9>  (512) 
N

>  <2C19>  (512) 
N

>  <2D6>  (512) 
N

>  <2E1>  (512) 
N

>  <3A4>  (512) 
N

>  <Citation>  (512) 
Nucleic Acids Res. 2018. Jan 4;46(D1):D608-17. PMID:29140435
Nucleic Acids Res. 2018 Jan 4;46(D1):D1074-D1082. PMID:29126136
Nucleic Acids Res., 45:D380-388 (2017).  PMID:27924025
Nucleic Acids Res. 2016 Jan 4;44(D1):D1202-13. PMID:26400175

>  <ROMol>  (512) 
<rdkit.Chem.rdchem.Mol object at 0x7c2905d5fd10>

>  <Drug_like>  (512) 
True

$$$$
3_4-Dhpea-ea
     RDKit          2D

 27 28  0  0  0  0  0  0  0  0999 V2000
   -5.4954    9.9694    0.0000 C   0  0  0  0  0  0  0  0  0  0  0  0
   -6.7945    9.2194    0.0000 C   0  0  0  0  0  0  0  0  0  0  0  0
   -6.7940    7.7186    0.0000 C   0  0  0  0  0  0  0  0  0  0  0  0
   -5.4945    6.9677    0.0000 C   0  0  0  0  0  0  0  0  0  0  0  0
   -4.1954    7.7177    0.0000 C   0  0  0  0  0  0  0  0  0  0  0  0
   -4.1959    9.2186    0.0000 C   0  0  0  0  0  0  0  0  0  0  0  0
   -2.8969    9.9686    0.0000 C   0  0  0  0  0  0  0  0  0  0  0  0
   -1.5978    9.2186    0.0000 C   0  0  0  0  0  0  0  0  0  0  0  0
   -0.2988    9.9686    0.0000 O   0  0  0  0  0  0  0  0  0  0  0  0
    1.0002    9.2186    0.0000 C   0  0  0  0  0  0  0  0  0  0  0  0
    2.2993    9.9686    0.0000 C   0  0  0  0  0  0  0  0  0  0  0  0
    3.5983    9.2186    0.0000 C   0  0  0  0  0  0  0  0  0  0  0  0
    4.1113   10.6290    0.0000 C   0  0  0  0  0  0  0  0  0  0  0  0
    5.5886   10.8893    0.0000 C   0  0  0  0  0  0  0  0  0  0  0  0
    6.5528    9.7392    0.0000 O   0  0  0  0  0  0  0  0  0  0  0  0
    6.0398    8.3288    0.0000 C   0  0  0  0  0  0  0  0  0  0  0  0
    4.5625    8.0684    0.0000 C   0  0  0  0  0  0  0  0  0  0  0  0
    4.0491    6.6590    0.0000 C   0  0  0  0  0  0  0  0  0  0  0  0
    5.0130    5.5097    0.0000 O   0  0  0  0  0  0  0  0  0  0  0  0
    4.4996    4.1003    0.0000 C   0  0  0  0  0  0  0  0  0  0  0  0
    2.5718    6.3990    0.0000 O   0  0  0  0  0  0  0  0  0  0  0  0
    6.8878   11.6389    0.0000 O   0  0  0  0  0  0  0  0  0  0  0  0
    2.5300   12.5134    0.0000 C   0  0  0  0  0  0  0  0  0  0  0  0
    3.0429   13.9229    0.0000 C   0  0  0  0  0  0  0  0  0  0  0  0
    1.0002    7.7186    0.0000 O   0  0  0  0  0  0  0  0  0  0  0  0
   -8.0930    6.9686    0.0000 O   0  0  0  0  0  0  0  0  0  0  0  0
   -8.0936    9.9692    0.0000 O   0  0  0  0  0  0  0  0  0  0  0  0
  1  2  2  0
  2  3  1  0
  3  4  2  0
  4  5  1  0
  5  6  2  0
  1  6  1  0
  6  7  1  0
  7  8  1  0
  8  9  1  0
  9 10  1  0
 10 11  1  0
 11 12  1  0
 12 13  1  0
 13 14  1  0
 14 15  1  0
 15 16  1  0
 16 17  2  0
 12 17  1  0
 17 18  1  0
 18 19  1  0
 19 20  1  0
 18 21  2  0
 14 22  1  0
 13 23  2  0
 23 24  1  0
 10 25  2  0
  3 26  1  0
  2 27  1  0
M  END
>  <cdk:Title>  (513) 
3_4-Dhpea-ea

>  <1A2>  (513) 
N

>  <2A6>  (513) 
N

>  <2B6>  (513) 
N

>  <2C8>  (513) 
N

>  <2C9>  (513) 
N

>  <2C19>  (513) 
N

>  <2D6>  (513) 
N

>  <2E1>  (513) 
N

>  <3A4>  (513) 
N

>  <Citation>  (513) 
Nucleic Acids Res. 2018. Jan 4;46(D1):D608-17. PMID:29140435
Nucleic Acids Res. 2018 Jan 4;46(D1):D1074-D1082. PMID:29126136
Nucleic Acids Res., 45:D380-388 (2017).  PMID:27924025
Nucleic Acids Res. 2016 Jan 4;44(D1):D1202-13. PMID:26400175

>  <ROMol>  (513) 
<rdkit.Chem.rdchem.Mol object at 0x7c2905d5fd80>

>  <Drug_like>  (513) 
True

$$$$
Quercetin-3-O-alpha-D-arabinofuranoside
     RDKit          2D

 31 34  0  0  0  0  0  0  0  0999 V2000
    5.1986    0.7496    0.0000 C   0  0  0  0  0  0  0  0  0  0  0  0
    6.4975    1.4998    0.0000 C   0  0  0  0  0  0  0  0  0  0  0  0
    6.4968    3.0006    0.0000 C   0  0  0  0  0  0  0  0  0  0  0  0
    5.1971    3.7512    0.0000 C   0  0  0  0  0  0  0  0  0  0  0  0
    3.8982    3.0010    0.0000 C   0  0  0  0  0  0  0  0  0  0  0  0
    3.8989    1.5002    0.0000 C   0  0  0  0  0  0  0  0  0  0  0  0
    2.6000    0.7500    0.0000 C   0  0  0  0  0  0  0  0  0  0  0  0
    2.6000   -0.7500    0.0000 C   0  0  0  0  0  0  0  0  0  0  0  0
    1.3000   -1.5000    0.0000 C   0  0  0  0  0  0  0  0  0  0  0  0
    0.0000   -0.7500    0.0000 C   0  0  0  0  0  0  0  0  0  0  0  0
   -1.3000   -1.5000    0.0000 C   0  0  0  0  0  0  0  0  0  0  0  0
   -2.6000   -0.7500    0.0000 C   0  0  0  0  0  0  0  0  0  0  0  0
   -2.6000    0.7500    0.0000 C   0  0  0  0  0  0  0  0  0  0  0  0
   -1.3000    1.5000    0.0000 C   0  0  0  0  0  0  0  0  0  0  0  0
    0.0000    0.7500    0.0000 C   0  0  0  0  0  0  0  0  0  0  0  0
    1.3000    1.5000    0.0000 O   0  0  0  0  0  0  0  0  0  0  0  0
   -3.8989    1.5002    0.0000 O   0  0  0  0  0  0  0  0  0  0  0  0
   -1.3000   -3.0000    0.0000 O   0  0  0  0  0  0  0  0  0  0  0  0
    1.3000   -3.0000    0.0000 O   0  0  0  0  0  0  0  0  0  0  0  0
    3.8989   -1.5002    0.0000 O   0  0  0  0  0  0  0  0  0  0  0  0
    3.8986   -3.4802    0.0000 C   0  0  0  0  0  0  0  0  0  0  0  0
    5.3914   -3.3248    0.0000 C   0  0  0  0  0  0  0  0  0  0  0  0
    5.9954   -4.6891    0.0000 C   0  0  0  0  0  0  0  0  0  0  0  0
    4.8869   -5.6980    0.0000 C   0  0  0  0  0  0  0  0  0  0  0  0
    4.0051   -6.9114    0.0000 C   0  0  0  0  0  0  0  0  0  0  0  0
    4.6150   -8.2818    0.0000 O   0  0  0  0  0  0  0  0  0  0  0  0
    3.5897   -4.9441    0.0000 O   0  0  0  0  0  0  0  0  0  0  0  0
    6.8806   -5.9000    0.0000 O   0  0  0  0  0  0  0  0  0  0  0  0
    6.8187   -2.8637    0.0000 O   0  0  0  0  0  0  0  0  0  0  0  0
    5.1971    5.2512    0.0000 O   0  0  0  0  0  0  0  0  0  0  0  0
    7.7957    3.7508    0.0000 O   0  0  0  0  0  0  0  0  0  0  0  0
  1  2  2  0
  2  3  1  0
  3  4  2  0
  4  5  1  0
  5  6  2  0
  1  6  1  0
  6  7  1  0
  7  8  2  0
  8  9  1  0
  9 10  1  0
 10 11  2  0
 11 12  1  0
 12 13  2  0
 13 14  1  0
 14 15  2  0
 10 15  1  0
 15 16  1  0
  7 16  1  0
 13 17  1  0
 11 18  1  0
  9 19  2  0
  8 20  1  0
 20 21  1  0
 21 22  1  0
 22 23  1  0
 23 24  1  0
 24 25  1  0
 25 26  1  0
 24 27  1  0
 21 27  1  0
 23 28  1  0
 22 29  1  0
  4 30  1  0
  3 31  1  0
M  END
>  <cdk:Title>  (514) 
Quercetin-3-O-alpha-D-arabinofuranoside

>  <1A2>  (514) 
N

>  <2A6>  (514) 
N

>  <2B6>  (514) 
N

>  <2C8>  (514) 
N

>  <2C9>  (514) 
N

>  <2C19>  (514) 
N

>  <2D6>  (514) 
N

>  <2E1>  (514) 
N

>  <3A4>  (514) 
N

>  <Citation>  (514) 
Nucleic Acids Res. 2018. Jan 4;46(D1):D608-17. PMID:29140435
Nucleic Acids Res. 2018 Jan 4;46(D1):D1074-D1082. PMID:29126136
Nucleic Acids Res., 45:D380-388 (2017).  PMID:27924025
Nucleic Acids Res. 2016 Jan 4;44(D1):D1202-13. PMID:26400175

>  <ROMol>  (514) 
<rdkit.Chem.rdchem.Mol object at 0x7c2905d5fe60>

>  <Drug_like>  (514) 
True

$$$$
Iminodiacetic acid
     RDKit          2D

  9  8  0  0  0  0  0  0  0  0999 V2000
    8.2099   -0.6391    0.0000 C   0  0  0  0  0  0  0  0  0  0  0  0
    8.2099   -2.1391    0.0000 O   0  0  0  0  0  0  0  0  0  0  0  0
    9.5090    0.1109    0.0000 O   0  0  0  0  0  0  0  0  0  0  0  0
    6.9109    0.1109    0.0000 C   0  0  0  0  0  0  0  0  0  0  0  0
    5.6118   -0.6391    0.0000 N   0  0  0  0  0  0  0  0  0  0  0  0
    3.8971    0.3509    0.0000 C   0  0  0  0  0  0  0  0  0  0  0  0
    2.5981   -0.3991    0.0000 C   0  0  0  0  0  0  0  0  0  0  0  0
    2.5981   -1.8991    0.0000 O   0  0  0  0  0  0  0  0  0  0  0  0
    1.2990    0.3509    0.0000 O   0  0  0  0  0  0  0  0  0  0  0  0
  1  2  2  0
  1  3  1  0
  1  4  1  0
  4  5  1  0
  5  6  1  0
  6  7  1  0
  7  8  2  0
  7  9  1  0
M  END
>  <cdk:Title>  (515) 
Iminodiacetic acid

>  <1A2>  (515) 
N

>  <2A6>  (515) 
N

>  <2B6>  (515) 
N

>  <2C8>  (515) 
N

>  <2C9>  (515) 
N

>  <2C19>  (515) 
N

>  <2D6>  (515) 
N

>  <2E1>  (515) 
N

>  <3A4>  (515) 
N

>  <Citation>  (515) 
Nucleic Acids Res. 2018. Jan 4;46(D1):D608-17. PMID:29140435
Nucleic Acids Res. 2018 Jan 4;46(D1):D1074-D1082. PMID:29126136
Nucleic Acids Res., 45:D380-388 (2017).  PMID:27924025
Nucleic Acids Res. 2016 Jan 4;44(D1):D1202-13. PMID:26400175

>  <ROMol>  (515) 
<rdkit.Chem.rdchem.Mol object at 0x7c2905d5fed0>

>  <Drug_like>  (515) 
True

$$$$
Glycyl-L-phenylalanine
     RDKit          2D

 16 16  0  0  0  0  0  0  0  0999 V2000
   -2.8152    3.6961    0.0000 N   0  0  0  0  0  0  0  0  0  0  0  0
   -2.8152    5.1961    0.0000 C   0  0  0  0  0  0  0  0  0  0  0  0
   -1.5162    5.9461    0.0000 O   0  0  0  0  0  0  0  0  0  0  0  0
   -4.1142    5.9461    0.0000 C   0  0  0  0  0  0  0  0  0  0  0  0
   -4.1142    7.4461    0.0000 N   0  0  0  0  0  0  0  0  0  0  0  0
   -1.5162    2.9461    0.0000 C   0  0  0  0  0  0  0  0  0  0  0  0
   -0.2171    3.6961    0.0000 C   0  0  0  0  0  0  0  0  0  0  0  0
    1.0819    2.9461    0.0000 C   0  0  0  0  0  0  0  0  0  0  0  0
    2.3814    3.6969    0.0000 C   0  0  0  0  0  0  0  0  0  0  0  0
    3.6805    2.9469    0.0000 C   0  0  0  0  0  0  0  0  0  0  0  0
    3.6800    1.4461    0.0000 C   0  0  0  0  0  0  0  0  0  0  0  0
    2.3805    0.6953    0.0000 C   0  0  0  0  0  0  0  0  0  0  0  0
    1.0814    1.4453    0.0000 C   0  0  0  0  0  0  0  0  0  0  0  0
   -2.4804    1.7970    0.0000 C   0  0  0  0  0  0  0  0  0  0  0  0
   -3.9576    2.0575    0.0000 O   0  0  0  0  0  0  0  0  0  0  0  0
   -1.9673    0.3875    0.0000 O   0  0  0  0  0  0  0  0  0  0  0  0
  1  2  1  0
  2  3  2  0
  2  4  1  0
  4  5  1  0
  1  6  1  0
  6  7  1  0
  7  8  1  0
  8  9  2  0
  9 10  1  0
 10 11  2  0
 11 12  1  0
 12 13  2  0
  8 13  1  0
  6 14  1  0
 14 15  1  0
 14 16  2  0
M  END
>  <cdk:Title>  (516) 
Glycyl-L-phenylalanine

>  <1A2>  (516) 
N

>  <2A6>  (516) 
N

>  <2B6>  (516) 
N

>  <2C8>  (516) 
N

>  <2C9>  (516) 
N

>  <2C19>  (516) 
N

>  <2D6>  (516) 
N

>  <2E1>  (516) 
N

>  <3A4>  (516) 
N

>  <Citation>  (516) 
Nucleic Acids Res. 2018. Jan 4;46(D1):D608-17. PMID:29140435
Nucleic Acids Res. 2018 Jan 4;46(D1):D1074-D1082. PMID:29126136
Nucleic Acids Res., 45:D380-388 (2017).  PMID:27924025
Nucleic Acids Res. 2016 Jan 4;44(D1):D1202-13. PMID:26400175

>  <ROMol>  (516) 
<rdkit.Chem.rdchem.Mol object at 0x7c2905d5ff40>

>  <Drug_like>  (516) 
True

$$$$
11Z-Octadecenylcarnitine
     RDKit          2D

 30 29  0  0  0  0  0  0  0  0999 V2000
   24.3176  -25.4357    0.0000 C   0  0  0  0  0  0  0  0  0  0  0  0
   23.3276  -27.1504    0.0000 C   0  0  0  0  0  0  0  0  0  0  0  0
   24.0776  -28.4495    0.0000 C   0  0  0  0  0  0  0  0  0  0  0  0
   23.3276  -29.7485    0.0000 C   0  0  0  0  0  0  0  0  0  0  0  0
   24.0776  -31.0475    0.0000 O   0  0  0  0  0  0  0  0  0  0  0  0
   21.8276  -29.7485    0.0000 O   0  0  0  0  0  0  0  0  0  0  0  0
   25.8344  -24.1630    0.0000 N   0  0  0  0  0  0  0  0  0  0  0  0
   28.5971  -25.1685    0.0000 C   0  0  0  0  0  0  0  0  0  0  0  0
   24.8702  -23.0139    0.0000 C   0  0  0  0  0  0  0  0  0  0  0  0
   27.3044  -21.6169    0.0000 C   0  0  0  0  0  0  0  0  0  0  0  0
   23.5676  -24.1367    0.0000 O   0  0  0  0  0  0  0  0  0  0  0  0
   22.0676  -24.1367    0.0000 C   0  0  0  0  0  0  0  0  0  0  0  0
   21.3176  -22.8376    0.0000 C   0  0  0  0  0  0  0  0  0  0  0  0
   18.8576  -22.8376    0.0000 C   0  0  0  0  0  0  0  0  0  0  0  0
   17.8676  -21.1229    0.0000 C   0  0  0  0  0  0  0  0  0  0  0  0
   15.8876  -21.1229    0.0000 C   0  0  0  0  0  0  0  0  0  0  0  0
   14.8976  -19.4082    0.0000 C   0  0  0  0  0  0  0  0  0  0  0  0
   13.3976  -19.4082    0.0000 C   0  0  0  0  0  0  0  0  0  0  0  0
   12.1676  -17.2777    0.0000 C   0  0  0  0  0  0  0  0  0  0  0  0
   10.6676  -17.2777    0.0000 C   0  0  0  0  0  0  0  0  0  0  0  0
    9.9176  -15.9787    0.0000 C   0  0  0  0  0  0  0  0  0  0  0  0
   10.6676  -14.6797    0.0000 C   0  0  0  0  0  0  0  0  0  0  0  0
    9.4376  -12.5492    0.0000 C   0  0  0  0  0  0  0  0  0  0  0  0
    6.4976  -12.5492    0.0000 C   0  0  0  0  0  0  0  0  0  0  0  0
    5.0276  -15.0954    0.0000 C   0  0  0  0  0  0  0  0  0  0  0  0
    3.5276  -15.0954    0.0000 C   0  0  0  0  0  0  0  0  0  0  0  0
    2.0576  -17.6415    0.0000 C   0  0  0  0  0  0  0  0  0  0  0  0
    0.5576  -17.6415    0.0000 C   0  0  0  0  0  0  0  0  0  0  0  0
   -0.1924  -18.9405    0.0000 C   0  0  0  0  0  0  0  0  0  0  0  0
   21.3176  -25.4357    0.0000 O   0  0  0  0  0  0  0  0  0  0  0  0
  1  2  1  0
  2  3  1  0
  3  4  1  0
  4  5  2  0
  4  6  1  0
  1  7  1  0
  7  8  1  0
  7  9  1  0
  7 10  1  0
  1 11  1  0
 11 12  1  0
 12 13  1  0
 13 14  1  0
 14 15  1  0
 15 16  1  0
 16 17  1  0
 17 18  1  0
 18 19  1  0
 19 20  1  0
 20 21  1  0
 21 22  1  0
 22 23  2  0
 23 24  1  0
 24 25  1  0
 25 26  1  0
 26 27  1  0
 27 28  1  0
 28 29  1  0
 12 30  2  0
M  CHG  2   6  -1   7   1
M  END
>  <cdk:Title>  (517) 
11Z-Octadecenylcarnitine

>  <1A2>  (517) 
N

>  <2A6>  (517) 
N

>  <2B6>  (517) 
N

>  <2C8>  (517) 
N

>  <2C9>  (517) 
N

>  <2C19>  (517) 
N

>  <2D6>  (517) 
N

>  <2E1>  (517) 
N

>  <3A4>  (517) 
N

>  <Citation>  (517) 
Nucleic Acids Res. 2018. Jan 4;46(D1):D608-17. PMID:29140435
Nucleic Acids Res. 2018 Jan 4;46(D1):D1074-D1082. PMID:29126136
Nucleic Acids Res., 45:D380-388 (2017).  PMID:27924025
Nucleic Acids Res. 2016 Jan 4;44(D1):D1202-13. PMID:26400175

>  <ROMol>  (517) 
<rdkit.Chem.rdchem.Mol object at 0x7c2905d8c040>

>  <Drug_like>  (517) 
True

$$$$
Ribose 1_5-bisphosphate
     RDKit          2D

 18 18  0  0  0  0  0  0  0  0999 V2000
    3.3306    2.3237    0.0000 C   0  0  0  0  0  0  0  0  0  0  0  0
    4.6424    3.0511    0.0000 O   0  0  0  0  0  0  0  0  0  0  0  0
    4.6684    4.5508    0.0000 P   0  0  0  0  0  0  0  0  0  0  0  0
    4.1798    5.9691    0.0000 O   0  0  0  0  0  0  0  0  0  0  0  0
    5.9802    5.2782    0.0000 O   0  0  0  0  0  0  0  0  0  0  0  0
    3.1869    4.3160    0.0000 O   0  0  0  0  0  0  0  0  0  0  0  0
    4.1906    1.0937    0.0000 C   0  0  0  0  0  0  0  0  0  0  0  0
    5.2862    0.0691    0.0000 O   0  0  0  0  0  0  0  0  0  0  0  0
    3.2906   -0.0963    0.0000 C   0  0  0  0  0  0  0  0  0  0  0  0
    1.8706    0.3837    0.0000 C   0  0  0  0  0  0  0  0  0  0  0  0
    1.9006    1.8837    0.0000 O   0  0  0  0  0  0  0  0  0  0  0  0
    0.3817    0.5662    0.0000 C   0  0  0  0  0  0  0  0  0  0  0  0
   -0.5208   -0.6319    0.0000 O   0  0  0  0  0  0  0  0  0  0  0  0
   -2.0096   -0.4494    0.0000 P   0  0  0  0  0  0  0  0  0  0  0  0
   -1.9309   -1.9473    0.0000 O   0  0  0  0  0  0  0  0  0  0  0  0
   -2.5960    0.9313    0.0000 O   0  0  0  0  0  0  0  0  0  0  0  0
   -3.4711   -0.7871    0.0000 O   0  0  0  0  0  0  0  0  0  0  0  0
    2.6610   -1.4578    0.0000 O   0  0  0  0  0  0  0  0  0  0  0  0
  1  2  1  0
  2  3  1  0
  3  4  2  0
  3  5  1  0
  3  6  1  0
  1  7  1  0
  7  8  1  0
  7  9  1  0
  9 10  1  0
 10 11  1  0
  1 11  1  0
 10 12  1  0
 12 13  1  0
 13 14  1  0
 14 15  2  0
 14 16  1  0
 14 17  1  0
  9 18  1  0
M  END
>  <cdk:Title>  (518) 
Ribose 1_5-bisphosphate

>  <1A2>  (518) 
N

>  <2A6>  (518) 
N

>  <2B6>  (518) 
N

>  <2C8>  (518) 
N

>  <2C9>  (518) 
N

>  <2C19>  (518) 
N

>  <2D6>  (518) 
N

>  <2E1>  (518) 
N

>  <3A4>  (518) 
N

>  <Citation>  (518) 
Nucleic Acids Res. 2018. Jan 4;46(D1):D608-17. PMID:29140435
Nucleic Acids Res. 2018 Jan 4;46(D1):D1074-D1082. PMID:29126136
Nucleic Acids Res., 45:D380-388 (2017).  PMID:27924025
Nucleic Acids Res. 2016 Jan 4;44(D1):D1202-13. PMID:26400175

>  <ROMol>  (518) 
<rdkit.Chem.rdchem.Mol object at 0x7c2905d8c0b0>

>  <Drug_like>  (518) 
True

$$$$
Xanthosine
     RDKit          2D

 20 22  0  0  0  0  0  0  0  0999 V2000
    3.9603   -7.2565    0.0000 O   0  0  0  0  0  0  0  0  0  0  0  0
    2.9556   -6.1427    0.0000 C   0  0  0  0  0  0  0  0  0  0  0  0
    3.4180   -4.7157    0.0000 C   0  0  0  0  0  0  0  0  0  0  0  0
    4.1644   -3.4231    0.0000 C   0  0  0  0  0  0  0  0  0  0  0  0
    5.3781   -4.3045    0.0000 O   0  0  0  0  0  0  0  0  0  0  0  0
    3.1598   -2.3092    0.0000 C   0  0  0  0  0  0  0  0  0  0  0  0
    4.7604   -1.1436    0.0000 O   0  0  0  0  0  0  0  0  0  0  0  0
    1.7973   -2.9186    0.0000 C   0  0  0  0  0  0  0  0  0  0  0  0
    1.9541   -4.4065    0.0000 O   0  0  0  0  0  0  0  0  0  0  0  0
    1.3320   -1.4926    0.0000 N   0  0  0  0  0  0  0  0  0  0  0  0
    2.2120   -0.2826    0.0000 C   0  0  0  0  0  0  0  0  0  0  0  0
    1.3320    0.9274    0.0000 N   0  0  0  0  0  0  0  0  0  0  0  0
   -0.0980    0.4674    0.0000 C   0  0  0  0  0  0  0  0  0  0  0  0
   -1.3980    1.2174    0.0000 C   0  0  0  0  0  0  0  0  0  0  0  0
   -1.3980    2.7174    0.0000 O   0  0  0  0  0  0  0  0  0  0  0  0
   -2.6980    0.4674    0.0000 N   0  0  0  0  0  0  0  0  0  0  0  0
   -2.6980   -1.0326    0.0000 C   0  0  0  0  0  0  0  0  0  0  0  0
   -3.9969   -1.7828    0.0000 O   0  0  0  0  0  0  0  0  0  0  0  0
   -1.3980   -1.7826    0.0000 N   0  0  0  0  0  0  0  0  0  0  0  0
   -0.0980   -1.0326    0.0000 C   0  0  0  0  0  0  0  0  0  0  0  0
  1  2  1  0
  2  3  1  0
  3  4  1  0
  4  5  1  0
  4  6  1  0
  6  7  1  0
  6  8  1  0
  8  9  1  0
  3  9  1  0
  8 10  1  0
 10 11  1  0
 11 12  2  0
 12 13  1  0
 13 14  2  0
 14 15  1  0
 14 16  1  0
 16 17  2  0
 17 18  1  0
 17 19  1  0
 19 20  2  0
 10 20  1  0
 13 20  1  0
M  END
>  <cdk:Title>  (519) 
Xanthosine

>  <1A2>  (519) 
N

>  <2A6>  (519) 
N

>  <2B6>  (519) 
N

>  <2C8>  (519) 
N

>  <2C9>  (519) 
N

>  <2C19>  (519) 
N

>  <2D6>  (519) 
N

>  <2E1>  (519) 
N

>  <3A4>  (519) 
N

>  <Citation>  (519) 
Nucleic Acids Res. 2018. Jan 4;46(D1):D608-17. PMID:29140435
Nucleic Acids Res. 2018 Jan 4;46(D1):D1074-D1082. PMID:29126136
Nucleic Acids Res., 45:D380-388 (2017).  PMID:27924025
Nucleic Acids Res. 2016 Jan 4;44(D1):D1202-13. PMID:26400175

>  <ROMol>  (519) 
<rdkit.Chem.rdchem.Mol object at 0x7c2905d8c120>

>  <Drug_like>  (519) 
True

$$$$
168398-95-6
     RDKit          2D

 15 16  0  0  0  0  0  0  0  0999 V2000
   -0.1127   -1.1502    0.0000 C   0  0  0  0  0  0  0  0  0  0  0  0
    0.8516   -2.2991    0.0000 C   0  0  0  0  0  0  0  0  0  0  0  0
    1.3648   -3.7086    0.0000 C   0  0  0  0  0  0  0  0  0  0  0  0
    1.8157   -1.1500    0.0000 C   0  0  0  0  0  0  0  0  0  0  0  0
    3.1157   -0.4000    0.0000 C   0  0  0  0  0  0  0  0  0  0  0  0
    3.1157    1.1000    0.0000 C   0  0  0  0  0  0  0  0  0  0  0  0
    1.8157    1.8500    0.0000 C   0  0  0  0  0  0  0  0  0  0  0  0
    1.8157    3.3500    0.0000 C   0  0  0  0  0  0  0  0  0  0  0  0
    0.5157    1.1000    0.0000 C   0  0  0  0  0  0  0  0  0  0  0  0
   -0.7843    1.8500    0.0000 C   0  0  0  0  0  0  0  0  0  0  0  0
   -2.0843    1.1000    0.0000 C   0  0  0  0  0  0  0  0  0  0  0  0
   -2.0843   -0.4000    0.0000 C   0  0  0  0  0  0  0  0  0  0  0  0
   -3.3833   -1.1502    0.0000 C   0  0  0  0  0  0  0  0  0  0  0  0
   -0.7843   -1.1500    0.0000 C   0  0  0  0  0  0  0  0  0  0  0  0
    0.5157   -0.4000    0.0000 C   0  0  0  0  0  0  0  0  0  0  0  0
  1  2  1  0
  2  3  1  0
  2  4  1  0
  4  5  1  0
  5  6  1  0
  6  7  2  0
  7  8  1  0
  7  9  1  0
  9 10  2  0
 10 11  1  0
 11 12  2  0
 12 13  1  0
 12 14  1  0
 14 15  2  0
  4 15  1  0
  9 15  1  0
M  END
>  <cdk:Title>  (520) 
168398-95-6

>  <1A2>  (520) 
N

>  <2A6>  (520) 
N

>  <2B6>  (520) 
N

>  <2C8>  (520) 
N

>  <2C9>  (520) 
N

>  <2C19>  (520) 
N

>  <2D6>  (520) 
N

>  <2E1>  (520) 
N

>  <3A4>  (520) 
N

>  <Citation>  (520) 
Nucleic Acids Res. 2018. Jan 4;46(D1):D608-17. PMID:29140435
Nucleic Acids Res. 2018 Jan 4;46(D1):D1074-D1082. PMID:29126136
Nucleic Acids Res., 45:D380-388 (2017).  PMID:27924025
Nucleic Acids Res. 2016 Jan 4;44(D1):D1202-13. PMID:26400175

>  <ROMol>  (520) 
<rdkit.Chem.rdchem.Mol object at 0x7c2905d8c200>

>  <Drug_like>  (520) 
True

$$$$
(S)-b-Aminoisobutyric acid
     RDKit          2D

  7  6  0  0  0  0  0  0  0  0999 V2000
    7.9064   -1.0189    0.0000 O   0  0  0  0  0  0  0  0  0  0  0  0
    6.6074   -0.2689    0.0000 C   0  0  0  0  0  0  0  0  0  0  0  0
    6.6074    1.2311    0.0000 O   0  0  0  0  0  0  0  0  0  0  0  0
    5.3084   -1.0189    0.0000 C   0  0  0  0  0  0  0  0  0  0  0  0
    2.7622    0.4511    0.0000 C   0  0  0  0  0  0  0  0  0  0  0  0
    2.7622    1.9511    0.0000 N   0  0  0  0  0  0  0  0  0  0  0  0
    4.3442   -2.1680    0.0000 C   0  0  0  0  0  0  0  0  0  0  0  0
  1  2  1  0
  2  3  2  0
  2  4  1  0
  4  5  1  0
  5  6  1  0
  4  7  1  0
M  END
>  <cdk:Title>  (521) 
(S)-b-Aminoisobutyric acid

>  <1A2>  (521) 
N

>  <2A6>  (521) 
N

>  <2B6>  (521) 
N

>  <2C8>  (521) 
N

>  <2C9>  (521) 
N

>  <2C19>  (521) 
N

>  <2D6>  (521) 
N

>  <2E1>  (521) 
N

>  <3A4>  (521) 
N

>  <Citation>  (521) 
Nucleic Acids Res. 2018. Jan 4;46(D1):D608-17. PMID:29140435
Nucleic Acids Res. 2018 Jan 4;46(D1):D1074-D1082. PMID:29126136
Nucleic Acids Res., 45:D380-388 (2017).  PMID:27924025
Nucleic Acids Res. 2016 Jan 4;44(D1):D1202-13. PMID:26400175

>  <ROMol>  (521) 
<rdkit.Chem.rdchem.Mol object at 0x7c2905d8c270>

>  <Drug_like>  (521) 
True

$$$$
Isobutyl enanthate
     RDKit          2D

 13 12  0  0  0  0  0  0  0  0999 V2000
   10.9920   -7.9310    0.0000 C   0  0  0  0  0  0  0  0  0  0  0  0
    9.4920   -7.9310    0.0000 C   0  0  0  0  0  0  0  0  0  0  0  0
    8.7420   -6.6319    0.0000 C   0  0  0  0  0  0  0  0  0  0  0  0
    6.2820   -6.6319    0.0000 C   0  0  0  0  0  0  0  0  0  0  0  0
    5.2920   -4.9172    0.0000 C   0  0  0  0  0  0  0  0  0  0  0  0
    3.7920   -4.9172    0.0000 C   0  0  0  0  0  0  0  0  0  0  0  0
    3.0420   -3.6181    0.0000 C   0  0  0  0  0  0  0  0  0  0  0  0
    3.7920   -2.3191    0.0000 O   0  0  0  0  0  0  0  0  0  0  0  0
    1.5420   -3.6181    0.0000 O   0  0  0  0  0  0  0  0  0  0  0  0
    0.7920   -2.3191    0.0000 C   0  0  0  0  0  0  0  0  0  0  0  0
   -2.1480   -2.3191    0.0000 C   0  0  0  0  0  0  0  0  0  0  0  0
   -2.8980   -3.6181    0.0000 C   0  0  0  0  0  0  0  0  0  0  0  0
   -1.6375    0.5762    0.0000 C   0  0  0  0  0  0  0  0  0  0  0  0
  1  2  1  0
  2  3  1  0
  3  4  1  0
  4  5  1  0
  5  6  1  0
  6  7  1  0
  7  8  2  0
  7  9  1  0
  9 10  1  0
 10 11  1  0
 11 12  1  0
 11 13  1  0
M  END
>  <cdk:Title>  (522) 
Isobutyl enanthate

>  <1A2>  (522) 
N

>  <2A6>  (522) 
N

>  <2B6>  (522) 
N

>  <2C8>  (522) 
N

>  <2C9>  (522) 
N

>  <2C19>  (522) 
N

>  <2D6>  (522) 
N

>  <2E1>  (522) 
N

>  <3A4>  (522) 
N

>  <Citation>  (522) 
Nucleic Acids Res. 2018. Jan 4;46(D1):D608-17. PMID:29140435
Nucleic Acids Res. 2018 Jan 4;46(D1):D1074-D1082. PMID:29126136
Nucleic Acids Res., 45:D380-388 (2017).  PMID:27924025
Nucleic Acids Res. 2016 Jan 4;44(D1):D1202-13. PMID:26400175

>  <ROMol>  (522) 
<rdkit.Chem.rdchem.Mol object at 0x7c2905d8c2e0>

>  <Drug_like>  (522) 
True

$$$$
CYCLO(-ala-gly)
     RDKit          2D

  9  9  0  0  0  0  0  0  0  0999 V2000
    1.4772   -1.5000    0.0000 N   0  0  0  0  0  0  0  0  0  0  0  0
    0.1772   -0.7500    0.0000 C   0  0  0  0  0  0  0  0  0  0  0  0
   -1.3001   -0.4897    0.0000 C   0  0  0  0  0  0  0  0  0  0  0  0
    0.1772    0.7500    0.0000 C   0  0  0  0  0  0  0  0  0  0  0  0
    1.4772    1.5000    0.0000 N   0  0  0  0  0  0  0  0  0  0  0  0
    2.7772    0.7500    0.0000 C   0  0  0  0  0  0  0  0  0  0  0  0
    2.7772   -0.7500    0.0000 C   0  0  0  0  0  0  0  0  0  0  0  0
    4.0761   -1.5002    0.0000 O   0  0  0  0  0  0  0  0  0  0  0  0
   -1.1217    1.5002    0.0000 O   0  0  0  0  0  0  0  0  0  0  0  0
  1  2  1  0
  2  3  1  0
  2  4  1  0
  4  5  1  0
  5  6  1  0
  6  7  1  0
  1  7  1  0
  7  8  2  0
  4  9  2  0
M  END
>  <cdk:Title>  (523) 
CYCLO(-ala-gly)

>  <1A2>  (523) 
N

>  <2A6>  (523) 
N

>  <2B6>  (523) 
N

>  <2C8>  (523) 
N

>  <2C9>  (523) 
N

>  <2C19>  (523) 
N

>  <2D6>  (523) 
N

>  <2E1>  (523) 
N

>  <3A4>  (523) 
N

>  <Citation>  (523) 
Nucleic Acids Res. 2018. Jan 4;46(D1):D608-17. PMID:29140435
Nucleic Acids Res. 2018 Jan 4;46(D1):D1074-D1082. PMID:29126136
Nucleic Acids Res., 45:D380-388 (2017).  PMID:27924025
Nucleic Acids Res. 2016 Jan 4;44(D1):D1202-13. PMID:26400175

>  <ROMol>  (523) 
<rdkit.Chem.rdchem.Mol object at 0x7c2905d8c350>

>  <Drug_like>  (523) 
True

$$$$
11-cis-Linoleic acid
     RDKit          2D

 20 19  0  0  0  0  0  0  0  0999 V2000
   26.2287   -6.4798    0.0000 O   0  0  0  0  0  0  0  0  0  0  0  0
   25.4787   -5.1808    0.0000 C   0  0  0  0  0  0  0  0  0  0  0  0
   26.2287   -3.8817    0.0000 O   0  0  0  0  0  0  0  0  0  0  0  0
   23.9787   -5.1808    0.0000 C   0  0  0  0  0  0  0  0  0  0  0  0
   23.2287   -3.8817    0.0000 C   0  0  0  0  0  0  0  0  0  0  0  0
   20.7687   -3.8817    0.0000 C   0  0  0  0  0  0  0  0  0  0  0  0
   19.7787   -2.1670    0.0000 C   0  0  0  0  0  0  0  0  0  0  0  0
   17.7987   -2.1670    0.0000 C   0  0  0  0  0  0  0  0  0  0  0  0
   16.8087   -0.4523    0.0000 C   0  0  0  0  0  0  0  0  0  0  0  0
   15.3087   -0.4523    0.0000 C   0  0  0  0  0  0  0  0  0  0  0  0
   14.5587    0.8468    0.0000 C   0  0  0  0  0  0  0  0  0  0  0  0
   13.0587    0.8468    0.0000 C   0  0  0  0  0  0  0  0  0  0  0  0
   12.3087    2.1458    0.0000 C   0  0  0  0  0  0  0  0  0  0  0  0
   10.8087    2.1458    0.0000 C   0  0  0  0  0  0  0  0  0  0  0  0
   10.0587    0.8468    0.0000 C   0  0  0  0  0  0  0  0  0  0  0  0
    8.5587    0.8468    0.0000 C   0  0  0  0  0  0  0  0  0  0  0  0
    7.3287   -1.2837    0.0000 C   0  0  0  0  0  0  0  0  0  0  0  0
    5.3487   -1.2837    0.0000 C   0  0  0  0  0  0  0  0  0  0  0  0
    4.5987   -2.5827    0.0000 C   0  0  0  0  0  0  0  0  0  0  0  0
    3.0987   -2.5827    0.0000 C   0  0  0  0  0  0  0  0  0  0  0  0
  1  2  1  0
  2  3  2  0
  2  4  1  0
  4  5  1  0
  5  6  1  0
  6  7  1  0
  7  8  1  0
  8  9  1  0
  9 10  1  0
 10 11  1  0
 11 12  2  0
 12 13  1  0
 13 14  2  0
 14 15  1  0
 15 16  1  0
 16 17  1  0
 17 18  1  0
 18 19  1  0
 19 20  1  0
M  END
>  <cdk:Title>  (524) 
11-cis-Linoleic acid

>  <1A2>  (524) 
N

>  <2A6>  (524) 
N

>  <2B6>  (524) 
N

>  <2C8>  (524) 
N

>  <2C9>  (524) 
N

>  <2C19>  (524) 
N

>  <2D6>  (524) 
N

>  <2E1>  (524) 
N

>  <3A4>  (524) 
N

>  <Citation>  (524) 
Nucleic Acids Res. 2018. Jan 4;46(D1):D608-17. PMID:29140435
Nucleic Acids Res. 2018 Jan 4;46(D1):D1074-D1082. PMID:29126136
Nucleic Acids Res., 45:D380-388 (2017).  PMID:27924025
Nucleic Acids Res. 2016 Jan 4;44(D1):D1202-13. PMID:26400175

>  <ROMol>  (524) 
<rdkit.Chem.rdchem.Mol object at 0x7c2905d8c3c0>

>  <Drug_like>  (524) 
True

$$$$
Benzenepropanoic acid_ alpha_3_4-trihydroxy-_ (as)-
     RDKit          2D

 14 14  0  0  0  0  0  0  0  0999 V2000
   -3.8083    2.6788    0.0000 O   0  0  0  0  0  0  0  0  0  0  0  0
   -2.3987    3.1919    0.0000 C   0  0  0  0  0  0  0  0  0  0  0  0
   -0.8987    3.1919    0.0000 C   0  0  0  0  0  0  0  0  0  0  0  0
   -0.1487    1.8928    0.0000 C   0  0  0  0  0  0  0  0  0  0  0  0
    1.3521    1.8933    0.0000 C   0  0  0  0  0  0  0  0  0  0  0  0
    2.1021    0.5943    0.0000 C   0  0  0  0  0  0  0  0  0  0  0  0
    3.6021    0.5940    0.0000 O   0  0  0  0  0  0  0  0  0  0  0  0
    1.3513   -0.7052    0.0000 C   0  0  0  0  0  0  0  0  0  0  0  0
    2.1013   -2.0043    0.0000 O   0  0  0  0  0  0  0  0  0  0  0  0
   -0.1496   -0.7057    0.0000 C   0  0  0  0  0  0  0  0  0  0  0  0
   -0.8996    0.5933    0.0000 C   0  0  0  0  0  0  0  0  0  0  0  0
   -3.1487    4.4909    0.0000 C   0  0  0  0  0  0  0  0  0  0  0  0
   -4.6487    4.4909    0.0000 O   0  0  0  0  0  0  0  0  0  0  0  0
   -2.3987    5.7899    0.0000 O   0  0  0  0  0  0  0  0  0  0  0  0
  1  2  1  0
  2  3  1  0
  3  4  1  0
  4  5  2  0
  5  6  1  0
  6  7  1  0
  6  8  2  0
  8  9  1  0
  8 10  1  0
 10 11  2  0
  4 11  1  0
  2 12  1  0
 12 13  1  0
 12 14  2  0
M  END
>  <cdk:Title>  (525) 
Benzenepropanoic acid_ alpha_3_4-trihydroxy-_ (as)-

>  <1A2>  (525) 
N

>  <2A6>  (525) 
N

>  <2B6>  (525) 
N

>  <2C8>  (525) 
N

>  <2C9>  (525) 
N

>  <2C19>  (525) 
N

>  <2D6>  (525) 
N

>  <2E1>  (525) 
N

>  <3A4>  (525) 
N

>  <Citation>  (525) 
Nucleic Acids Res. 2018. Jan 4;46(D1):D608-17. PMID:29140435
Nucleic Acids Res. 2018 Jan 4;46(D1):D1074-D1082. PMID:29126136
Nucleic Acids Res., 45:D380-388 (2017).  PMID:27924025
Nucleic Acids Res. 2016 Jan 4;44(D1):D1202-13. PMID:26400175

>  <ROMol>  (525) 
<rdkit.Chem.rdchem.Mol object at 0x7c2905d8c430>

>  <Drug_like>  (525) 
True

$$$$
Glutamyllysine
     RDKit          2D

 19 18  0  0  0  0  0  0  0  0999 V2000
    8.7371   -0.8693    0.0000 O   0  0  0  0  0  0  0  0  0  0  0  0
    9.4871   -2.1683    0.0000 C   0  0  0  0  0  0  0  0  0  0  0  0
    8.7371   -3.4674    0.0000 N   0  0  0  0  0  0  0  0  0  0  0  0
    7.2371   -3.4674    0.0000 C   0  0  0  0  0  0  0  0  0  0  0  0
    6.2471   -1.7526    0.0000 C   0  0  0  0  0  0  0  0  0  0  0  0
    4.2671   -1.7526    0.0000 C   0  0  0  0  0  0  0  0  0  0  0  0
    3.2771   -0.0379    0.0000 C   0  0  0  0  0  0  0  0  0  0  0  0
    1.7771   -0.0379    0.0000 C   0  0  0  0  0  0  0  0  0  0  0  0
    1.0271    1.2611    0.0000 N   0  0  0  0  0  0  0  0  0  0  0  0
    7.4975   -4.9446    0.0000 C   0  0  0  0  0  0  0  0  0  0  0  0
    8.9071   -5.4576    0.0000 O   0  0  0  0  0  0  0  0  0  0  0  0
    6.3485   -5.9088    0.0000 O   0  0  0  0  0  0  0  0  0  0  0  0
   10.9871   -2.1683    0.0000 C   0  0  0  0  0  0  0  0  0  0  0  0
   10.7266   -0.6911    0.0000 N   0  0  0  0  0  0  0  0  0  0  0  0
   11.9771   -3.8831    0.0000 C   0  0  0  0  0  0  0  0  0  0  0  0
   13.4771   -3.8831    0.0000 C   0  0  0  0  0  0  0  0  0  0  0  0
   14.2271   -5.1821    0.0000 C   0  0  0  0  0  0  0  0  0  0  0  0
   15.7271   -5.1821    0.0000 O   0  0  0  0  0  0  0  0  0  0  0  0
   13.4771   -6.4811    0.0000 O   0  0  0  0  0  0  0  0  0  0  0  0
  1  2  2  0
  2  3  1  0
  3  4  1  0
  4  5  1  0
  5  6  1  0
  6  7  1  0
  7  8  1  0
  8  9  1  0
  4 10  1  0
 10 11  1  0
 10 12  2  0
  2 13  1  0
 13 14  1  0
 13 15  1  0
 15 16  1  0
 16 17  1  0
 17 18  1  0
 17 19  2  0
M  END
>  <cdk:Title>  (526) 
Glutamyllysine

>  <1A2>  (526) 
N

>  <2A6>  (526) 
N

>  <2B6>  (526) 
N

>  <2C8>  (526) 
N

>  <2C9>  (526) 
N

>  <2C19>  (526) 
N

>  <2D6>  (526) 
N

>  <2E1>  (526) 
N

>  <3A4>  (526) 
N

>  <Citation>  (526) 
Nucleic Acids Res. 2018. Jan 4;46(D1):D608-17. PMID:29140435
Nucleic Acids Res. 2018 Jan 4;46(D1):D1074-D1082. PMID:29126136
Nucleic Acids Res., 45:D380-388 (2017).  PMID:27924025
Nucleic Acids Res. 2016 Jan 4;44(D1):D1202-13. PMID:26400175

>  <ROMol>  (526) 
<rdkit.Chem.rdchem.Mol object at 0x7c2905d8c580>

>  <Drug_like>  (526) 
True

$$$$
ZINC95620577
     RDKit          2D

 14 13  0  0  0  0  0  0  0  0999 V2000
    1.0615    0.1795    0.0000 C   0  0  0  0  0  0  0  0  0  0  0  0
    2.3606    0.9295    0.0000 C   0  0  0  0  0  0  0  0  0  0  0  0
    3.6596    0.1795    0.0000 C   0  0  0  0  0  0  0  0  0  0  0  0
    5.3743    1.1695    0.0000 C   0  0  0  0  0  0  0  0  0  0  0  0
    7.5047   -0.0605    0.0000 C   0  0  0  0  0  0  0  0  0  0  0  0
    8.8038    0.6895    0.0000 C   0  0  0  0  0  0  0  0  0  0  0  0
   10.1028   -0.0605    0.0000 O   0  0  0  0  0  0  0  0  0  0  0  0
   11.4019    0.6895    0.0000 C   0  0  0  0  0  0  0  0  0  0  0  0
   12.7009   -0.0605    0.0000 C   0  0  0  0  0  0  0  0  0  0  0  0
   11.7367   -1.2095    0.0000 C   0  0  0  0  0  0  0  0  0  0  0  0
   13.9999    0.6895    0.0000 C   0  0  0  0  0  0  0  0  0  0  0  0
   15.2990   -0.0605    0.0000 C   0  0  0  0  0  0  0  0  0  0  0  0
   16.5980    0.6895    0.0000 C   0  0  0  0  0  0  0  0  0  0  0  0
   11.4019    2.1895    0.0000 O   0  0  0  0  0  0  0  0  0  0  0  0
  1  2  1  0
  2  3  1  0
  3  4  1  0
  4  5  1  0
  5  6  1  0
  6  7  1  0
  7  8  1  0
  8  9  1  0
  9 10  1  0
  9 11  1  0
 11 12  1  0
 12 13  2  0
  8 14  2  0
M  END
>  <cdk:Title>  (527) 
ZINC95620577

>  <1A2>  (527) 
N

>  <2A6>  (527) 
N

>  <2B6>  (527) 
N

>  <2C8>  (527) 
N

>  <2C9>  (527) 
N

>  <2C19>  (527) 
N

>  <2D6>  (527) 
N

>  <2E1>  (527) 
N

>  <3A4>  (527) 
N

>  <Citation>  (527) 
Nucleic Acids Res. 2018. Jan 4;46(D1):D608-17. PMID:29140435
Nucleic Acids Res. 2018 Jan 4;46(D1):D1074-D1082. PMID:29126136
Nucleic Acids Res., 45:D380-388 (2017).  PMID:27924025
Nucleic Acids Res. 2016 Jan 4;44(D1):D1202-13. PMID:26400175

>  <ROMol>  (527) 
<rdkit.Chem.rdchem.Mol object at 0x7c2905d8c5f0>

>  <Drug_like>  (527) 
True

$$$$
5-Methoxyindoleacetate
     RDKit          2D

 15 16  0  0  0  0  0  0  0  0999 V2000
   -2.1628    2.9591    0.0000 O   0  0  0  0  0  0  0  0  0  0  0  0
   -3.6549    3.1130    0.0000 C   0  0  0  0  0  0  0  0  0  0  0  0
   -1.5500    1.5900    0.0000 C   0  0  0  0  0  0  0  0  0  0  0  0
   -0.0600    1.4400    0.0000 C   0  0  0  0  0  0  0  0  0  0  0  0
    0.5500    0.0700    0.0000 C   0  0  0  0  0  0  0  0  0  0  0  0
   -0.3300   -1.1500    0.0000 C   0  0  0  0  0  0  0  0  0  0  0  0
    0.5500   -2.3600    0.0000 N   0  0  0  0  0  0  0  0  0  0  0  0
    1.9800   -1.9000    0.0000 C   0  0  0  0  0  0  0  0  0  0  0  0
    1.9800   -0.4000    0.0000 C   0  0  0  0  0  0  0  0  0  0  0  0
    3.1950    0.4796    0.0000 C   0  0  0  0  0  0  0  0  0  0  0  0
    4.5643   -0.1328    0.0000 C   0  0  0  0  0  0  0  0  0  0  0  0
    5.7793    0.7468    0.0000 O   0  0  0  0  0  0  0  0  0  0  0  0
    4.7186   -1.6249    0.0000 O   0  0  0  0  0  0  0  0  0  0  0  0
   -1.8200   -0.9900    0.0000 C   0  0  0  0  0  0  0  0  0  0  0  0
   -2.4300    0.3800    0.0000 C   0  0  0  0  0  0  0  0  0  0  0  0
  1  2  1  0
  1  3  1  0
  3  4  2  0
  4  5  1  0
  5  6  2  0
  6  7  1  0
  7  8  1  0
  8  9  2  0
  5  9  1  0
  9 10  1  0
 10 11  1  0
 11 12  1  0
 11 13  2  0
  6 14  1  0
 14 15  2  0
  3 15  1  0
M  END
>  <cdk:Title>  (528) 
5-Methoxyindoleacetate

>  <1A2>  (528) 
N

>  <2A6>  (528) 
N

>  <2B6>  (528) 
N

>  <2C8>  (528) 
N

>  <2C9>  (528) 
N

>  <2C19>  (528) 
N

>  <2D6>  (528) 
N

>  <2E1>  (528) 
N

>  <3A4>  (528) 
N

>  <Citation>  (528) 
Nucleic Acids Res. 2018. Jan 4;46(D1):D608-17. PMID:29140435
Nucleic Acids Res. 2018 Jan 4;46(D1):D1074-D1082. PMID:29126136
Nucleic Acids Res., 45:D380-388 (2017).  PMID:27924025
Nucleic Acids Res. 2016 Jan 4;44(D1):D1202-13. PMID:26400175

>  <ROMol>  (528) 
<rdkit.Chem.rdchem.Mol object at 0x7c2905d8c660>

>  <Drug_like>  (528) 
True

$$$$
SCHEMBL13829948
     RDKit          2D

  9  8  0  0  0  0  0  0  0  0999 V2000
   -0.1262    0.5486    0.0000 C   0  0  0  0  0  0  0  0  0  0  0  0
    1.1728    1.2986    0.0000 C   0  0  0  0  0  0  0  0  0  0  0  0
    2.4719    0.5486    0.0000 C   0  0  0  0  0  0  0  0  0  0  0  0
    3.7709    1.2986    0.0000 C   0  0  0  0  0  0  0  0  0  0  0  0
    5.9013    0.0686    0.0000 C   0  0  0  0  0  0  0  0  0  0  0  0
    7.6161    1.0586    0.0000 C   0  0  0  0  0  0  0  0  0  0  0  0
    8.9151    0.3086    0.0000 C   0  0  0  0  0  0  0  0  0  0  0  0
   10.2141    1.0586    0.0000 C   0  0  0  0  0  0  0  0  0  0  0  0
    7.9509   -0.8405    0.0000 O   0  0  0  0  0  0  0  0  0  0  0  0
  1  2  2  0
  2  3  1  0
  3  4  1  0
  4  5  1  0
  5  6  1  0
  6  7  1  0
  7  8  1  0
  7  9  1  0
M  END
>  <cdk:Title>  (529) 
SCHEMBL13829948

>  <1A2>  (529) 
N

>  <2A6>  (529) 
N

>  <2B6>  (529) 
N

>  <2C8>  (529) 
N

>  <2C9>  (529) 
N

>  <2C19>  (529) 
N

>  <2D6>  (529) 
N

>  <2E1>  (529) 
N

>  <3A4>  (529) 
N

>  <Citation>  (529) 
Nucleic Acids Res. 2018. Jan 4;46(D1):D608-17. PMID:29140435
Nucleic Acids Res. 2018 Jan 4;46(D1):D1074-D1082. PMID:29126136
Nucleic Acids Res., 45:D380-388 (2017).  PMID:27924025
Nucleic Acids Res. 2016 Jan 4;44(D1):D1202-13. PMID:26400175

>  <ROMol>  (529) 
<rdkit.Chem.rdchem.Mol object at 0x7c2905d8c6d0>

>  <Drug_like>  (529) 
True

$$$$
2-Ethyl-4-methylthiazole
     RDKit          2D

  8  8  0  0  0  0  0  0  0  0999 V2000
    2.9533   -2.3164    0.0000 C   0  0  0  0  0  0  0  0  0  0  0  0
    2.6377   -0.8500    0.0000 C   0  0  0  0  0  0  0  0  0  0  0  0
    1.2100   -0.3900    0.0000 C   0  0  0  0  0  0  0  0  0  0  0  0
    0.0000   -1.2800    0.0000 S   0  0  0  0  0  0  0  0  0  0  0  0
   -1.2100   -0.3900    0.0000 C   0  0  0  0  0  0  0  0  0  0  0  0
   -0.7500    1.0300    0.0000 C   0  0  0  0  0  0  0  0  0  0  0  0
   -1.6322    2.2431    0.0000 C   0  0  0  0  0  0  0  0  0  0  0  0
    0.7500    1.0300    0.0000 N   0  0  0  0  0  0  0  0  0  0  0  0
  1  2  1  0
  2  3  1  0
  3  4  1  0
  4  5  1  0
  5  6  2  0
  6  7  1  0
  6  8  1  0
  3  8  2  0
M  END
>  <cdk:Title>  (530) 
2-Ethyl-4-methylthiazole

>  <1A2>  (530) 
N

>  <2A6>  (530) 
N

>  <2B6>  (530) 
N

>  <2C8>  (530) 
N

>  <2C9>  (530) 
N

>  <2C19>  (530) 
N

>  <2D6>  (530) 
N

>  <2E1>  (530) 
N

>  <3A4>  (530) 
N

>  <Citation>  (530) 
Nucleic Acids Res. 2018. Jan 4;46(D1):D608-17. PMID:29140435
Nucleic Acids Res. 2018 Jan 4;46(D1):D1074-D1082. PMID:29126136
Nucleic Acids Res., 45:D380-388 (2017).  PMID:27924025
Nucleic Acids Res. 2016 Jan 4;44(D1):D1202-13. PMID:26400175

>  <ROMol>  (530) 
<rdkit.Chem.rdchem.Mol object at 0x7c2905d8c740>

>  <Drug_like>  (530) 
True

$$$$
2-(4-Methyl-5-thiazolyl)ethyl decanoate
     RDKit          2D

 20 20  0  0  0  0  0  0  0  0999 V2000
    9.7028   -6.2871    0.0000 C   0  0  0  0  0  0  0  0  0  0  0  0
    8.2146   -6.0988    0.0000 C   0  0  0  0  0  0  0  0  0  0  0  0
    7.3075   -7.2934    0.0000 C   0  0  0  0  0  0  0  0  0  0  0  0
    4.8669   -6.9846    0.0000 C   0  0  0  0  0  0  0  0  0  0  0  0
    3.9598   -8.1792    0.0000 C   0  0  0  0  0  0  0  0  0  0  0  0
    1.5192   -7.8703    0.0000 C   0  0  0  0  0  0  0  0  0  0  0  0
    0.6121   -9.0649    0.0000 C   0  0  0  0  0  0  0  0  0  0  0  0
   -1.8285   -8.7561    0.0000 C   0  0  0  0  0  0  0  0  0  0  0  0
   -2.7356   -9.9507    0.0000 C   0  0  0  0  0  0  0  0  0  0  0  0
   -4.2237   -9.7623    0.0000 C   0  0  0  0  0  0  0  0  0  0  0  0
   -4.8047   -8.3794    0.0000 O   0  0  0  0  0  0  0  0  0  0  0  0
   -5.1309  -10.9569    0.0000 O   0  0  0  0  0  0  0  0  0  0  0  0
   -6.6190  -10.7686    0.0000 C   0  0  0  0  0  0  0  0  0  0  0  0
   -7.5262  -11.9632    0.0000 C   0  0  0  0  0  0  0  0  0  0  0  0
   -9.0143  -11.7749    0.0000 C   0  0  0  0  0  0  0  0  0  0  0  0
  -10.0327  -12.8709    0.0000 C   0  0  0  0  0  0  0  0  0  0  0  0
   -9.7327  -14.3406    0.0000 C   0  0  0  0  0  0  0  0  0  0  0  0
  -11.4322  -12.2471    0.0000 N   0  0  0  0  0  0  0  0  0  0  0  0
  -11.1944  -10.7588    0.0000 C   0  0  0  0  0  0  0  0  0  0  0  0
   -9.7297  -10.4558    0.0000 S   0  0  0  0  0  0  0  0  0  0  0  0
  1  2  1  0
  2  3  1  0
  3  4  1  0
  4  5  1  0
  5  6  1  0
  6  7  1  0
  7  8  1  0
  8  9  1  0
  9 10  1  0
 10 11  2  0
 10 12  1  0
 12 13  1  0
 13 14  1  0
 14 15  1  0
 15 16  2  0
 16 17  1  0
 16 18  1  0
 18 19  2  0
 19 20  1  0
 15 20  1  0
M  END
>  <cdk:Title>  (531) 
2-(4-Methyl-5-thiazolyl)ethyl decanoate

>  <1A2>  (531) 
N

>  <2A6>  (531) 
N

>  <2B6>  (531) 
N

>  <2C8>  (531) 
N

>  <2C9>  (531) 
N

>  <2C19>  (531) 
N

>  <2D6>  (531) 
N

>  <2E1>  (531) 
N

>  <3A4>  (531) 
N

>  <Citation>  (531) 
Nucleic Acids Res. 2018. Jan 4;46(D1):D608-17. PMID:29140435
Nucleic Acids Res. 2018 Jan 4;46(D1):D1074-D1082. PMID:29126136
Nucleic Acids Res., 45:D380-388 (2017).  PMID:27924025
Nucleic Acids Res. 2016 Jan 4;44(D1):D1202-13. PMID:26400175

>  <ROMol>  (531) 
<rdkit.Chem.rdchem.Mol object at 0x7c2905d8c7b0>

>  <Drug_like>  (531) 
True

$$$$
Ethyl 3-octenoate
     RDKit          2D

 12 11  0  0  0  0  0  0  0  0999 V2000
   14.7051   -0.9900    0.0000 C   0  0  0  0  0  0  0  0  0  0  0  0
   13.4061   -0.2400    0.0000 C   0  0  0  0  0  0  0  0  0  0  0  0
   12.1070   -0.9900    0.0000 C   0  0  0  0  0  0  0  0  0  0  0  0
   10.3923   -0.0000    0.0000 C   0  0  0  0  0  0  0  0  0  0  0  0
    9.0933   -0.7500    0.0000 C   0  0  0  0  0  0  0  0  0  0  0  0
    7.7942   -0.0000    0.0000 C   0  0  0  0  0  0  0  0  0  0  0  0
    6.4952   -0.7500    0.0000 C   0  0  0  0  0  0  0  0  0  0  0  0
    5.1962   -0.0000    0.0000 C   0  0  0  0  0  0  0  0  0  0  0  0
    5.1962    1.5000    0.0000 O   0  0  0  0  0  0  0  0  0  0  0  0
    3.8971   -0.7500    0.0000 O   0  0  0  0  0  0  0  0  0  0  0  0
    2.5981   -0.0000    0.0000 C   0  0  0  0  0  0  0  0  0  0  0  0
    1.2990   -0.7500    0.0000 C   0  0  0  0  0  0  0  0  0  0  0  0
  1  2  1  0
  2  3  1  0
  3  4  1  0
  4  5  1  0
  5  6  2  0
  6  7  1  0
  7  8  1  0
  8  9  2  0
  8 10  1  0
 10 11  1  0
 11 12  1  0
M  END
>  <cdk:Title>  (532) 
Ethyl 3-octenoate

>  <1A2>  (532) 
N

>  <2A6>  (532) 
N

>  <2B6>  (532) 
N

>  <2C8>  (532) 
N

>  <2C9>  (532) 
N

>  <2C19>  (532) 
N

>  <2D6>  (532) 
N

>  <2E1>  (532) 
N

>  <3A4>  (532) 
N

>  <Citation>  (532) 
Nucleic Acids Res. 2018. Jan 4;46(D1):D608-17. PMID:29140435
Nucleic Acids Res. 2018 Jan 4;46(D1):D1074-D1082. PMID:29126136
Nucleic Acids Res., 45:D380-388 (2017).  PMID:27924025
Nucleic Acids Res. 2016 Jan 4;44(D1):D1202-13. PMID:26400175

>  <ROMol>  (532) 
<rdkit.Chem.rdchem.Mol object at 0x7c2905d8c820>

>  <Drug_like>  (532) 
True

$$$$
Retinoyl b-glucuronide
     RDKit          2D

 34 35  0  0  0  0  0  0  0  0999 V2000
    5.8446   -2.1077    0.0000 O   0  0  0  0  0  0  0  0  0  0  0  0
    7.3446   -2.1074    0.0000 C   0  0  0  0  0  0  0  0  0  0  0  0
    8.0944   -0.8083    0.0000 O   0  0  0  0  0  0  0  0  0  0  0  0
    8.0948   -3.4064    0.0000 C   0  0  0  0  0  0  0  0  0  0  0  0
    9.5948   -3.4061    0.0000 C   0  0  0  0  0  0  0  0  0  0  0  0
   10.3446   -2.1070    0.0000 C   0  0  0  0  0  0  0  0  0  0  0  0
   10.3451   -4.7050    0.0000 C   0  0  0  0  0  0  0  0  0  0  0  0
   11.8451   -4.7048    0.0000 C   0  0  0  0  0  0  0  0  0  0  0  0
   12.5953   -6.0037    0.0000 C   0  0  0  0  0  0  0  0  0  0  0  0
   14.0953   -6.0035    0.0000 C   0  0  0  0  0  0  0  0  0  0  0  0
   14.8451   -4.7043    0.0000 C   0  0  0  0  0  0  0  0  0  0  0  0
   14.8455   -7.3024    0.0000 C   0  0  0  0  0  0  0  0  0  0  0  0
   16.3455   -7.3022    0.0000 C   0  0  0  0  0  0  0  0  0  0  0  0
   17.3357   -9.0167    0.0000 C   0  0  0  0  0  0  0  0  0  0  0  0
   18.8366   -9.0167    0.0000 C   0  0  0  0  0  0  0  0  0  0  0  0
   18.5758   -7.5396    0.0000 C   0  0  0  0  0  0  0  0  0  0  0  0
   21.5988   -8.0100    0.0000 C   0  0  0  0  0  0  0  0  0  0  0  0
   19.5878  -10.3160    0.0000 C   0  0  0  0  0  0  0  0  0  0  0  0
   18.8382  -11.6153    0.0000 C   0  0  0  0  0  0  0  0  0  0  0  0
   17.3374  -11.6153    0.0000 C   0  0  0  0  0  0  0  0  0  0  0  0
   16.5862  -10.3160    0.0000 C   0  0  0  0  0  0  0  0  0  0  0  0
   15.0862  -10.3167    0.0000 C   0  0  0  0  0  0  0  0  0  0  0  0
    5.0944   -0.8088    0.0000 C   0  0  0  0  0  0  0  0  0  0  0  0
    4.8237    0.6851    0.0000 O   0  0  0  0  0  0  0  0  0  0  0  0
    3.4146    1.2019    0.0000 C   0  0  0  0  0  0  0  0  0  0  0  0
    2.2712    0.2466    0.0000 C   0  0  0  0  0  0  0  0  0  0  0  0
    2.5214   -1.2384    0.0000 C   0  0  0  0  0  0  0  0  0  0  0  0
    3.9510   -1.7641    0.0000 C   0  0  0  0  0  0  0  0  0  0  0  0
    3.1972   -3.0609    0.0000 O   0  0  0  0  0  0  0  0  0  0  0  0
    1.0215   -1.2291    0.0000 O   0  0  0  0  0  0  0  0  0  0  0  0
    1.5263    1.5486    0.0000 O   0  0  0  0  0  0  0  0  0  0  0  0
    4.1677    2.4991    0.0000 C   0  0  0  0  0  0  0  0  0  0  0  0
    3.4207    3.7999    0.0000 O   0  0  0  0  0  0  0  0  0  0  0  0
    5.6677    2.4956    0.0000 O   0  0  0  0  0  0  0  0  0  0  0  0
  1  2  1  0
  2  3  2  0
  2  4  1  0
  4  5  2  0
  5  6  1  0
  5  7  1  0
  7  8  2  0
  8  9  1  0
  9 10  2  0
 10 11  1  0
 10 12  1  0
 12 13  2  0
 13 14  1  0
 14 15  1  0
 15 16  1  0
 15 17  1  0
 15 18  1  0
 18 19  1  0
 19 20  1  0
 20 21  1  0
 14 21  2  0
 21 22  1  0
  1 23  1  0
 23 24  1  0
 24 25  1  0
 25 26  1  0
 26 27  1  0
 27 28  1  0
 23 28  1  0
 28 29  1  0
 27 30  1  0
 26 31  1  0
 25 32  1  0
 32 33  1  0
 32 34  2  0
M  END
>  <cdk:Title>  (533) 
Retinoyl b-glucuronide

>  <1A2>  (533) 
N

>  <2A6>  (533) 
N

>  <2B6>  (533) 
N

>  <2C8>  (533) 
N

>  <2C9>  (533) 
N

>  <2C19>  (533) 
N

>  <2D6>  (533) 
N

>  <2E1>  (533) 
N

>  <3A4>  (533) 
N

>  <Citation>  (533) 
Nucleic Acids Res. 2018. Jan 4;46(D1):D608-17. PMID:29140435
Nucleic Acids Res. 2018 Jan 4;46(D1):D1074-D1082. PMID:29126136
Nucleic Acids Res., 45:D380-388 (2017).  PMID:27924025
Nucleic Acids Res. 2016 Jan 4;44(D1):D1202-13. PMID:26400175

>  <ROMol>  (533) 
<rdkit.Chem.rdchem.Mol object at 0x7c2905d8c890>

>  <Drug_like>  (533) 
True

$$$$
2-Phospho-D-glyceric acid
     RDKit          2D

 11 10  0  0  0  0  0  0  0  0999 V2000
    6.2821   -3.2125    0.0000 O   0  0  0  0  0  0  0  0  0  0  0  0
    5.5321   -1.9135    0.0000 C   0  0  0  0  0  0  0  0  0  0  0  0
    4.0321   -1.9135    0.0000 C   0  0  0  0  0  0  0  0  0  0  0  0
    3.2821   -0.6144    0.0000 O   0  0  0  0  0  0  0  0  0  0  0  0
    1.7821   -0.6144    0.0000 P   0  0  0  0  0  0  0  0  0  0  0  0
    1.0321   -1.9135    0.0000 O   0  0  0  0  0  0  0  0  0  0  0  0
    2.0426    0.8628    0.0000 O   0  0  0  0  0  0  0  0  0  0  0  0
    0.3726   -0.1014    0.0000 O   0  0  0  0  0  0  0  0  0  0  0  0
    4.2926   -3.3907    0.0000 C   0  0  0  0  0  0  0  0  0  0  0  0
    5.7022   -3.9037    0.0000 O   0  0  0  0  0  0  0  0  0  0  0  0
    3.1436   -4.3549    0.0000 O   0  0  0  0  0  0  0  0  0  0  0  0
  1  2  1  0
  2  3  1  0
  3  4  1  0
  4  5  1  0
  5  6  1  0
  5  7  1  0
  5  8  2  0
  3  9  1  0
  9 10  1  0
  9 11  2  0
M  END
>  <cdk:Title>  (534) 
2-Phospho-D-glyceric acid

>  <1A2>  (534) 
N

>  <2A6>  (534) 
N

>  <2B6>  (534) 
N

>  <2C8>  (534) 
N

>  <2C9>  (534) 
N

>  <2C19>  (534) 
N

>  <2D6>  (534) 
N

>  <2E1>  (534) 
N

>  <3A4>  (534) 
N

>  <Citation>  (534) 
Nucleic Acids Res. 2018. Jan 4;46(D1):D608-17. PMID:29140435
Nucleic Acids Res. 2018 Jan 4;46(D1):D1074-D1082. PMID:29126136
Nucleic Acids Res., 45:D380-388 (2017).  PMID:27924025
Nucleic Acids Res. 2016 Jan 4;44(D1):D1202-13. PMID:26400175

>  <ROMol>  (534) 
<rdkit.Chem.rdchem.Mol object at 0x7c2905d8c970>

>  <Drug_like>  (534) 
True

$$$$
1-Methoxy-3-methylene-2-pentanone
     RDKit          2D

  9  8  0  0  0  0  0  0  0  0999 V2000
    1.1209   -0.7500    0.0000 C   0  0  0  0  0  0  0  0  0  0  0  0
    2.4199   -1.5000    0.0000 C   0  0  0  0  0  0  0  0  0  0  0  0
    3.7189   -0.7500    0.0000 C   0  0  0  0  0  0  0  0  0  0  0  0
    3.7189    0.7500    0.0000 C   0  0  0  0  0  0  0  0  0  0  0  0
    5.0180   -1.5000    0.0000 C   0  0  0  0  0  0  0  0  0  0  0  0
    6.3170   -0.7500    0.0000 C   0  0  0  0  0  0  0  0  0  0  0  0
    7.6161   -1.5000    0.0000 O   0  0  0  0  0  0  0  0  0  0  0  0
    8.9151   -0.7500    0.0000 C   0  0  0  0  0  0  0  0  0  0  0  0
    5.0180   -3.0000    0.0000 O   0  0  0  0  0  0  0  0  0  0  0  0
  1  2  1  0
  2  3  1  0
  3  4  2  0
  3  5  1  0
  5  6  1  0
  6  7  1  0
  7  8  1  0
  5  9  2  0
M  END
>  <cdk:Title>  (535) 
1-Methoxy-3-methylene-2-pentanone

>  <1A2>  (535) 
N

>  <2A6>  (535) 
N

>  <2B6>  (535) 
N

>  <2C8>  (535) 
N

>  <2C9>  (535) 
N

>  <2C19>  (535) 
N

>  <2D6>  (535) 
N

>  <2E1>  (535) 
N

>  <3A4>  (535) 
N

>  <Citation>  (535) 
Nucleic Acids Res. 2018. Jan 4;46(D1):D608-17. PMID:29140435
Nucleic Acids Res. 2018 Jan 4;46(D1):D1074-D1082. PMID:29126136
Nucleic Acids Res., 45:D380-388 (2017).  PMID:27924025
Nucleic Acids Res. 2016 Jan 4;44(D1):D1202-13. PMID:26400175

>  <ROMol>  (535) 
<rdkit.Chem.rdchem.Mol object at 0x7c2905d8ca50>

>  <Drug_like>  (535) 
True

$$$$
Alnustone
     RDKit          2D

 20 21  0  0  0  0  0  0  0  0999 V2000
  -11.0420    1.4457    0.0000 C   0  0  0  0  0  0  0  0  0  0  0  0
  -11.0425   -0.0551    0.0000 C   0  0  0  0  0  0  0  0  0  0  0  0
   -9.7434   -0.8051    0.0000 C   0  0  0  0  0  0  0  0  0  0  0  0
   -8.4439   -0.0543    0.0000 C   0  0  0  0  0  0  0  0  0  0  0  0
   -8.4434    1.4466    0.0000 C   0  0  0  0  0  0  0  0  0  0  0  0
   -9.7425    2.1966    0.0000 C   0  0  0  0  0  0  0  0  0  0  0  0
   -7.1449   -0.8043    0.0000 C   0  0  0  0  0  0  0  0  0  0  0  0
   -5.8459   -0.0543    0.0000 C   0  0  0  0  0  0  0  0  0  0  0  0
   -4.5468   -0.8043    0.0000 C   0  0  0  0  0  0  0  0  0  0  0  0
   -3.2478   -0.0543    0.0000 C   0  0  0  0  0  0  0  0  0  0  0  0
   -3.2478    1.4457    0.0000 C   0  0  0  0  0  0  0  0  0  0  0  0
   -1.9487    2.1957    0.0000 C   0  0  0  0  0  0  0  0  0  0  0  0
   -1.9487    3.6957    0.0000 C   0  0  0  0  0  0  0  0  0  0  0  0
   -0.6497    4.4457    0.0000 C   0  0  0  0  0  0  0  0  0  0  0  0
    0.6498    3.6949    0.0000 C   0  0  0  0  0  0  0  0  0  0  0  0
    1.9489    4.4449    0.0000 C   0  0  0  0  0  0  0  0  0  0  0  0
    1.9484    5.9457    0.0000 C   0  0  0  0  0  0  0  0  0  0  0  0
    0.6489    6.6966    0.0000 C   0  0  0  0  0  0  0  0  0  0  0  0
   -0.6502    5.9466    0.0000 C   0  0  0  0  0  0  0  0  0  0  0  0
   -4.5468    2.1957    0.0000 O   0  0  0  0  0  0  0  0  0  0  0  0
  1  2  2  0
  2  3  1  0
  3  4  2  0
  4  5  1  0
  5  6  2  0
  1  6  1  0
  4  7  1  0
  7  8  2  0
  8  9  1  0
  9 10  2  0
 10 11  1  0
 11 12  1  0
 12 13  1  0
 13 14  1  0
 14 15  2  0
 15 16  1  0
 16 17  2  0
 17 18  1  0
 18 19  2  0
 14 19  1  0
 11 20  2  0
M  END
>  <cdk:Title>  (536) 
Alnustone

>  <1A2>  (536) 
N

>  <2A6>  (536) 
N

>  <2B6>  (536) 
N

>  <2C8>  (536) 
N

>  <2C9>  (536) 
N

>  <2C19>  (536) 
N

>  <2D6>  (536) 
N

>  <2E1>  (536) 
N

>  <3A4>  (536) 
N

>  <Citation>  (536) 
Nucleic Acids Res. 2018. Jan 4;46(D1):D608-17. PMID:29140435
Nucleic Acids Res. 2018 Jan 4;46(D1):D1074-D1082. PMID:29126136
Nucleic Acids Res., 45:D380-388 (2017).  PMID:27924025
Nucleic Acids Res. 2016 Jan 4;44(D1):D1202-13. PMID:26400175

>  <ROMol>  (536) 
<rdkit.Chem.rdchem.Mol object at 0x7c2905d8cac0>

>  <Drug_like>  (536) 
True

$$$$
Diisopropyl sulfide
     RDKit          2D

  7  6  0  0  0  0  0  0  0  0999 V2000
    1.4355    0.2845    0.0000 C   0  0  0  0  0  0  0  0  0  0  0  0
    1.9486   -1.1250    0.0000 C   0  0  0  0  0  0  0  0  0  0  0  0
    1.9486   -2.6250    0.0000 C   0  0  0  0  0  0  0  0  0  0  0  0
    3.2476   -0.3750    0.0000 S   0  0  0  0  0  0  0  0  0  0  0  0
    4.5466   -1.1250    0.0000 C   0  0  0  0  0  0  0  0  0  0  0  0
    5.8457   -0.3750    0.0000 C   0  0  0  0  0  0  0  0  0  0  0  0
    5.5108   -2.2741    0.0000 C   0  0  0  0  0  0  0  0  0  0  0  0
  1  2  1  0
  2  3  1  0
  2  4  1  0
  4  5  1  0
  5  6  1  0
  5  7  1  0
M  END
>  <cdk:Title>  (537) 
Diisopropyl sulfide

>  <1A2>  (537) 
N

>  <2A6>  (537) 
N

>  <2B6>  (537) 
N

>  <2C8>  (537) 
N

>  <2C9>  (537) 
N

>  <2C19>  (537) 
N

>  <2D6>  (537) 
N

>  <2E1>  (537) 
N

>  <3A4>  (537) 
N

>  <Citation>  (537) 
Nucleic Acids Res. 2018. Jan 4;46(D1):D608-17. PMID:29140435
Nucleic Acids Res. 2018 Jan 4;46(D1):D1074-D1082. PMID:29126136
Nucleic Acids Res., 45:D380-388 (2017).  PMID:27924025
Nucleic Acids Res. 2016 Jan 4;44(D1):D1202-13. PMID:26400175

>  <ROMol>  (537) 
<rdkit.Chem.rdchem.Mol object at 0x7c2905d8cb30>

>  <Drug_like>  (537) 
True

$$$$
Lenthionine
     RDKit          2D

  7  7  0  0  0  0  0  0  0  0999 V2000
   -1.6900   -0.3900    0.0000 C   0  0  0  0  0  0  0  0  0  0  0  0
   -0.7500   -1.5600    0.0000 S   0  0  0  0  0  0  0  0  0  0  0  0
    0.7500   -1.5600    0.0000 S   0  0  0  0  0  0  0  0  0  0  0  0
    1.6900   -0.3800    0.0000 C   0  0  0  0  0  0  0  0  0  0  0  0
    1.3500    1.0800    0.0000 S   0  0  0  0  0  0  0  0  0  0  0  0
    0.0000    1.7300    0.0000 S   0  0  0  0  0  0  0  0  0  0  0  0
   -1.3500    1.0800    0.0000 S   0  0  0  0  0  0  0  0  0  0  0  0
  1  2  1  0
  2  3  1  0
  3  4  1  0
  4  5  1  0
  5  6  1  0
  6  7  1  0
  1  7  1  0
M  END
>  <cdk:Title>  (538) 
Lenthionine

>  <1A2>  (538) 
N

>  <2A6>  (538) 
N

>  <2B6>  (538) 
N

>  <2C8>  (538) 
N

>  <2C9>  (538) 
N

>  <2C19>  (538) 
N

>  <2D6>  (538) 
N

>  <2E1>  (538) 
N

>  <3A4>  (538) 
N

>  <Citation>  (538) 
Nucleic Acids Res. 2018. Jan 4;46(D1):D608-17. PMID:29140435
Nucleic Acids Res. 2018 Jan 4;46(D1):D1074-D1082. PMID:29126136
Nucleic Acids Res., 45:D380-388 (2017).  PMID:27924025
Nucleic Acids Res. 2016 Jan 4;44(D1):D1202-13. PMID:26400175

>  <ROMol>  (538) 
<rdkit.Chem.rdchem.Mol object at 0x7c2905d8cba0>

>  <Drug_like>  (538) 
True

$$$$
Cyclamic acid
     RDKit          2D

 11 11  0  0  0  0  0  0  0  0999 V2000
    2.4831   -0.6860    0.0000 C   0  0  0  0  0  0  0  0  0  0  0  0
    1.1836   -1.4368    0.0000 C   0  0  0  0  0  0  0  0  0  0  0  0
   -0.1154   -0.6868    0.0000 C   0  0  0  0  0  0  0  0  0  0  0  0
   -0.1149    0.8140    0.0000 C   0  0  0  0  0  0  0  0  0  0  0  0
    1.1846    1.5649    0.0000 C   0  0  0  0  0  0  0  0  0  0  0  0
    2.4836    0.8149    0.0000 C   0  0  0  0  0  0  0  0  0  0  0  0
   -0.7923    2.6745    0.0000 N   0  0  0  0  0  0  0  0  0  0  0  0
   -2.2696    2.9349    0.0000 S   0  0  0  0  0  0  0  0  0  0  0  0
   -3.2336    1.7857    0.0000 O   0  0  0  0  0  0  0  0  0  0  0  0
   -3.5687    3.6847    0.0000 O   0  0  0  0  0  0  0  0  0  0  0  0
   -1.7567    4.3444    0.0000 O   0  0  0  0  0  0  0  0  0  0  0  0
  1  2  1  0
  2  3  1  0
  3  4  1  0
  4  5  1  0
  5  6  1  0
  1  6  1  0
  4  7  1  0
  7  8  1  0
  8  9  1  0
  8 10  2  0
  8 11  2  0
M  END
>  <cdk:Title>  (539) 
Cyclamic acid

>  <1A2>  (539) 
N

>  <2A6>  (539) 
N

>  <2B6>  (539) 
N

>  <2C8>  (539) 
N

>  <2C9>  (539) 
N

>  <2C19>  (539) 
N

>  <2D6>  (539) 
N

>  <2E1>  (539) 
N

>  <3A4>  (539) 
N

>  <Citation>  (539) 
Nucleic Acids Res. 2018. Jan 4;46(D1):D608-17. PMID:29140435
Nucleic Acids Res. 2018 Jan 4;46(D1):D1074-D1082. PMID:29126136
Nucleic Acids Res., 45:D380-388 (2017).  PMID:27924025
Nucleic Acids Res. 2016 Jan 4;44(D1):D1202-13. PMID:26400175

>  <ROMol>  (539) 
<rdkit.Chem.rdchem.Mol object at 0x7c2905d8cc80>

>  <Drug_like>  (539) 
True

$$$$
(S)-beta-Bisabolene
     RDKit          2D

 15 15  0  0  0  0  0  0  0  0999 V2000
    3.2718   -0.3373    0.0000 C   0  0  0  0  0  0  0  0  0  0  0  0
    1.9851   -1.0686    0.0000 C   0  0  0  0  0  0  0  0  0  0  0  0
    2.0525   -2.5654    0.0000 C   0  0  0  0  0  0  0  0  0  0  0  0
    3.3221   -3.2643    0.0000 C   0  0  0  0  0  0  0  0  0  0  0  0
    4.6088   -2.5330    0.0000 C   0  0  0  0  0  0  0  0  0  0  0  0
    4.5413   -1.0361    0.0000 C   0  0  0  0  0  0  0  0  0  0  0  0
    5.8152   -0.2441    0.0000 C   0  0  0  0  0  0  0  0  0  0  0  0
   -0.8596   -2.1618    0.0000 C   0  0  0  0  0  0  0  0  0  0  0  0
   -1.7809   -3.3456    0.0000 C   0  0  0  0  0  0  0  0  0  0  0  0
   -3.2667   -3.1396    0.0000 C   0  0  0  0  0  0  0  0  0  0  0  0
   -4.1879   -4.3234    0.0000 C   0  0  0  0  0  0  0  0  0  0  0  0
   -5.6737   -4.1175    0.0000 C   0  0  0  0  0  0  0  0  0  0  0  0
   -6.5949   -5.3012    0.0000 C   0  0  0  0  0  0  0  0  0  0  0  0
   -6.2382   -2.7278    0.0000 C   0  0  0  0  0  0  0  0  0  0  0  0
   -1.4242   -0.7721    0.0000 C   0  0  0  0  0  0  0  0  0  0  0  0
  1  2  1  0
  2  3  1  0
  3  4  1  0
  4  5  1  0
  5  6  2  0
  1  6  1  0
  6  7  1  0
  3  8  1  0
  8  9  1  0
  9 10  1  0
 10 11  1  0
 11 12  2  0
 12 13  1  0
 12 14  1  0
  8 15  2  0
M  END
>  <cdk:Title>  (540) 
(S)-beta-Bisabolene

>  <1A2>  (540) 
N

>  <2A6>  (540) 
N

>  <2B6>  (540) 
N

>  <2C8>  (540) 
N

>  <2C9>  (540) 
N

>  <2C19>  (540) 
N

>  <2D6>  (540) 
N

>  <2E1>  (540) 
N

>  <3A4>  (540) 
N

>  <Citation>  (540) 
Nucleic Acids Res. 2018. Jan 4;46(D1):D608-17. PMID:29140435
Nucleic Acids Res. 2018 Jan 4;46(D1):D1074-D1082. PMID:29126136
Nucleic Acids Res., 45:D380-388 (2017).  PMID:27924025
Nucleic Acids Res. 2016 Jan 4;44(D1):D1202-13. PMID:26400175

>  <ROMol>  (540) 
<rdkit.Chem.rdchem.Mol object at 0x7c2905d8ccf0>

>  <Drug_like>  (540) 
True

$$$$
Mammea b/ba
     RDKit          2D

 27 28  0  0  0  0  0  0  0  0999 V2000
   -3.8998    6.0021    0.0000 C   0  0  0  0  0  0  0  0  0  0  0  0
   -2.6005    5.2525    0.0000 C   0  0  0  0  0  0  0  0  0  0  0  0
   -2.6000    3.7525    0.0000 C   0  0  0  0  0  0  0  0  0  0  0  0
   -1.3007    3.0029    0.0000 C   0  0  0  0  0  0  0  0  0  0  0  0
   -0.0014    3.7542    0.0000 C   0  0  0  0  0  0  0  0  0  0  0  0
    1.2978    3.0046    0.0000 C   0  0  0  0  0  0  0  0  0  0  0  0
    2.5968    3.7548    0.0000 O   0  0  0  0  0  0  0  0  0  0  0  0
    1.2978    1.5037    0.0000 O   0  0  0  0  0  0  0  0  0  0  0  0
   -0.0014    0.7525    0.0000 C   0  0  0  0  0  0  0  0  0  0  0  0
   -1.3007    1.5021    0.0000 C   0  0  0  0  0  0  0  0  0  0  0  0
   -2.6000    0.7508    0.0000 C   0  0  0  0  0  0  0  0  0  0  0  0
   -2.6000   -0.7500    0.0000 C   0  0  0  0  0  0  0  0  0  0  0  0
   -3.8989   -1.5002    0.0000 C   0  0  0  0  0  0  0  0  0  0  0  0
   -5.1981   -0.7504    0.0000 C   0  0  0  0  0  0  0  0  0  0  0  0
   -6.4970   -1.5006    0.0000 C   0  0  0  0  0  0  0  0  0  0  0  0
   -7.7962   -0.7508    0.0000 C   0  0  0  0  0  0  0  0  0  0  0  0
   -6.4968   -3.0006    0.0000 C   0  0  0  0  0  0  0  0  0  0  0  0
   -1.3007   -1.4996    0.0000 C   0  0  0  0  0  0  0  0  0  0  0  0
   -0.0014   -0.7483    0.0000 C   0  0  0  0  0  0  0  0  0  0  0  0
    1.2978   -1.4979    0.0000 C   0  0  0  0  0  0  0  0  0  0  0  0
    2.5966   -0.7475    0.0000 C   0  0  0  0  0  0  0  0  0  0  0  0
    4.3117   -1.7370    0.0000 C   0  0  0  0  0  0  0  0  0  0  0  0
    5.6105   -0.9865    0.0000 C   0  0  0  0  0  0  0  0  0  0  0  0
    5.2762   -2.8857    0.0000 C   0  0  0  0  0  0  0  0  0  0  0  0
    1.2983   -2.9979    0.0000 O   0  0  0  0  0  0  0  0  0  0  0  0
   -1.3000   -2.9996    0.0000 O   0  0  0  0  0  0  0  0  0  0  0  0
   -3.8993    1.5004    0.0000 O   0  0  0  0  0  0  0  0  0  0  0  0
  1  2  1  0
  2  3  1  0
  3  4  1  0
  4  5  2  0
  5  6  1  0
  6  7  2  0
  6  8  1  0
  8  9  1  0
  9 10  2  0
  4 10  1  0
 10 11  1  0
 11 12  2  0
 12 13  1  0
 13 14  1  0
 14 15  2  0
 15 16  1  0
 15 17  1  0
 12 18  1  0
 18 19  2  0
  9 19  1  0
 19 20  1  0
 20 21  1  0
 21 22  1  0
 22 23  1  0
 22 24  1  0
 20 25  2  0
 18 26  1  0
 11 27  1  0
M  END
>  <cdk:Title>  (541) 
Mammea b/ba

>  <1A2>  (541) 
N

>  <2A6>  (541) 
N

>  <2B6>  (541) 
N

>  <2C8>  (541) 
N

>  <2C9>  (541) 
N

>  <2C19>  (541) 
N

>  <2D6>  (541) 
N

>  <2E1>  (541) 
N

>  <3A4>  (541) 
N

>  <Citation>  (541) 
Nucleic Acids Res. 2018. Jan 4;46(D1):D608-17. PMID:29140435
Nucleic Acids Res. 2018 Jan 4;46(D1):D1074-D1082. PMID:29126136
Nucleic Acids Res., 45:D380-388 (2017).  PMID:27924025
Nucleic Acids Res. 2016 Jan 4;44(D1):D1202-13. PMID:26400175

>  <ROMol>  (541) 
<rdkit.Chem.rdchem.Mol object at 0x7c2905d8cd60>

>  <Drug_like>  (541) 
True

$$$$
alpha-L-Fucose 1-phosphate
     RDKit          2D

 15 15  0  0  0  0  0  0  0  0999 V2000
    6.0026   -0.4731    0.0000 P   0  0  0  0  0  0  0  0  0  0  0  0
    4.5248   -0.2161    0.0000 O   0  0  0  0  0  0  0  0  0  0  0  0
    3.5632   -1.3673    0.0000 C   0  0  0  0  0  0  0  0  0  0  0  0
    2.6002   -0.2303    0.0000 C   0  0  0  0  0  0  0  0  0  0  0  0
    1.1018   -0.5035    0.0000 C   0  0  0  0  0  0  0  0  0  0  0  0
    0.6010   -1.9237    0.0000 C   0  0  0  0  0  0  0  0  0  0  0  0
    1.5640   -3.0607    0.0000 C   0  0  0  0  0  0  0  0  0  0  0  0
    3.0407   -2.7928    0.0000 O   0  0  0  0  0  0  0  0  0  0  0  0
    2.0838   -4.4677    0.0000 C   0  0  0  0  0  0  0  0  0  0  0  0
   -0.3558   -3.0789    0.0000 O   0  0  0  0  0  0  0  0  0  0  0  0
   -0.3776   -0.2558    0.0000 O   0  0  0  0  0  0  0  0  0  0  0  0
    2.0796    1.1764    0.0000 O   0  0  0  0  0  0  0  0  0  0  0  0
    6.5189   -1.8815    0.0000 O   0  0  0  0  0  0  0  0  0  0  0  0
    7.4792   -0.2093    0.0000 O   0  0  0  0  0  0  0  0  0  0  0  0
    5.9991    1.0269    0.0000 O   0  0  0  0  0  0  0  0  0  0  0  0
  1  2  1  0
  2  3  1  0
  3  4  1  0
  4  5  1  0
  5  6  1  0
  6  7  1  0
  7  8  1  0
  3  8  1  0
  7  9  1  0
  6 10  1  0
  5 11  1  0
  4 12  1  0
  1 13  1  0
  1 14  1  0
  1 15  2  0
M  END
>  <cdk:Title>  (542) 
alpha-L-Fucose 1-phosphate

>  <1A2>  (542) 
N

>  <2A6>  (542) 
N

>  <2B6>  (542) 
N

>  <2C8>  (542) 
N

>  <2C9>  (542) 
N

>  <2C19>  (542) 
N

>  <2D6>  (542) 
N

>  <2E1>  (542) 
N

>  <3A4>  (542) 
N

>  <Citation>  (542) 
Nucleic Acids Res. 2018. Jan 4;46(D1):D608-17. PMID:29140435
Nucleic Acids Res. 2018 Jan 4;46(D1):D1074-D1082. PMID:29126136
Nucleic Acids Res., 45:D380-388 (2017).  PMID:27924025
Nucleic Acids Res. 2016 Jan 4;44(D1):D1202-13. PMID:26400175

>  <ROMol>  (542) 
<rdkit.Chem.rdchem.Mol object at 0x7c2905d8cdd0>

>  <Drug_like>  (542) 
True

$$$$
UNII-m8I6861388 component ptjicchltnphdb-mnovxskesa-N
     RDKit          2D

 13 13  0  0  0  0  0  0  0  0999 V2000
   -2.1814    3.3380    0.0000 C   0  0  0  0  0  0  0  0  0  0  0  0
   -1.3014    2.1232    0.0000 C   0  0  0  0  0  0  0  0  0  0  0  0
    0.1906    2.2780    0.0000 C   0  0  0  0  0  0  0  0  0  0  0  0
    1.6338    0.2858    0.0000 C   0  0  0  0  0  0  0  0  0  0  0  0
    3.1258    0.4406    0.0000 C   0  0  0  0  0  0  0  0  0  0  0  0
    4.2874   -1.1629    0.0000 C   0  0  0  0  0  0  0  0  0  0  0  0
    6.2569   -0.9586    0.0000 C   0  0  0  0  0  0  0  0  0  0  0  0
    7.1369   -2.1733    0.0000 C   0  0  0  0  0  0  0  0  0  0  0  0
    7.7398   -3.5491    0.0000 O   0  0  0  0  0  0  0  0  0  0  0  0
    9.2327   -3.3833    0.0000 C   0  0  0  0  0  0  0  0  0  0  0  0
    9.5443   -1.9235    0.0000 C   0  0  0  0  0  0  0  0  0  0  0  0
   11.4270   -2.5365    0.0000 C   0  0  0  0  0  0  0  0  0  0  0  0
    8.2452   -1.1735    0.0000 O   0  0  0  0  0  0  0  0  0  0  0  0
  1  2  1  0
  2  3  1  0
  3  4  1  0
  4  5  1  0
  5  6  1  0
  6  7  1  0
  7  8  1  0
  8  9  1  0
  9 10  1  0
 10 11  1  0
 11 12  1  0
 11 13  1  0
  8 13  1  0
M  END
>  <cdk:Title>  (543) 
UNII-m8I6861388 component ptjicchltnphdb-mnovxskesa-N

>  <1A2>  (543) 
N

>  <2A6>  (543) 
N

>  <2B6>  (543) 
N

>  <2C8>  (543) 
N

>  <2C9>  (543) 
N

>  <2C19>  (543) 
N

>  <2D6>  (543) 
N

>  <2E1>  (543) 
N

>  <3A4>  (543) 
N

>  <Citation>  (543) 
Nucleic Acids Res. 2018. Jan 4;46(D1):D608-17. PMID:29140435
Nucleic Acids Res. 2018 Jan 4;46(D1):D1074-D1082. PMID:29126136
Nucleic Acids Res., 45:D380-388 (2017).  PMID:27924025
Nucleic Acids Res. 2016 Jan 4;44(D1):D1202-13. PMID:26400175

>  <ROMol>  (543) 
<rdkit.Chem.rdchem.Mol object at 0x7c2905d8ce40>

>  <Drug_like>  (543) 
True

$$$$
13S-Hotre
     RDKit          2D

 21 20  0  0  0  0  0  0  0  0999 V2000
   13.5331   -7.9866    0.0000 C   0  0  0  0  0  0  0  0  0  0  0  0
   12.7831   -9.2857    0.0000 C   0  0  0  0  0  0  0  0  0  0  0  0
   13.5331  -10.5847    0.0000 C   0  0  0  0  0  0  0  0  0  0  0  0
   15.0331  -10.5847    0.0000 C   0  0  0  0  0  0  0  0  0  0  0  0
   15.7831   -9.2857    0.0000 C   0  0  0  0  0  0  0  0  0  0  0  0
   17.2831   -9.2857    0.0000 C   0  0  0  0  0  0  0  0  0  0  0  0
   18.0331   -7.9866    0.0000 C   0  0  0  0  0  0  0  0  0  0  0  0
   19.5331   -7.9866    0.0000 C   0  0  0  0  0  0  0  0  0  0  0  0
   20.2831   -6.6876    0.0000 C   0  0  0  0  0  0  0  0  0  0  0  0
   21.7831   -6.6876    0.0000 C   0  0  0  0  0  0  0  0  0  0  0  0
   22.5331   -7.9866    0.0000 C   0  0  0  0  0  0  0  0  0  0  0  0
   24.0331   -7.9866    0.0000 C   0  0  0  0  0  0  0  0  0  0  0  0
   25.0231   -9.7014    0.0000 C   0  0  0  0  0  0  0  0  0  0  0  0
   27.4831   -9.7014    0.0000 C   0  0  0  0  0  0  0  0  0  0  0  0
   28.4731  -11.4161    0.0000 C   0  0  0  0  0  0  0  0  0  0  0  0
   30.4531  -11.4161    0.0000 C   0  0  0  0  0  0  0  0  0  0  0  0
   31.2031  -12.7151    0.0000 C   0  0  0  0  0  0  0  0  0  0  0  0
   32.7031  -12.7151    0.0000 C   0  0  0  0  0  0  0  0  0  0  0  0
   33.4531  -14.0142    0.0000 O   0  0  0  0  0  0  0  0  0  0  0  0
   33.4531  -11.4161    0.0000 O   0  0  0  0  0  0  0  0  0  0  0  0
   17.0227  -10.7629    0.0000 O   0  0  0  0  0  0  0  0  0  0  0  0
  1  2  1  0
  2  3  1  0
  3  4  2  0
  4  5  1  0
  5  6  1  0
  6  7  1  0
  7  8  2  0
  8  9  1  0
  9 10  2  0
 10 11  1  0
 11 12  1  0
 12 13  1  0
 13 14  1  0
 14 15  1  0
 15 16  1  0
 16 17  1  0
 17 18  1  0
 18 19  1  0
 18 20  2  0
  6 21  1  0
M  END
>  <cdk:Title>  (544) 
13S-Hotre

>  <1A2>  (544) 
N

>  <2A6>  (544) 
N

>  <2B6>  (544) 
N

>  <2C8>  (544) 
N

>  <2C9>  (544) 
N

>  <2C19>  (544) 
N

>  <2D6>  (544) 
N

>  <2E1>  (544) 
N

>  <3A4>  (544) 
N

>  <Citation>  (544) 
Nucleic Acids Res. 2018. Jan 4;46(D1):D608-17. PMID:29140435
Nucleic Acids Res. 2018 Jan 4;46(D1):D1074-D1082. PMID:29126136
Nucleic Acids Res., 45:D380-388 (2017).  PMID:27924025
Nucleic Acids Res. 2016 Jan 4;44(D1):D1202-13. PMID:26400175

>  <ROMol>  (544) 
<rdkit.Chem.rdchem.Mol object at 0x7c2905d8cf90>

>  <Drug_like>  (544) 
True

$$$$
73573-51-0
     RDKit          2D

 13 14  0  0  0  0  0  0  0  0999 V2000
   -1.1825   -2.7600    0.0000 O   0  0  0  0  0  0  0  0  0  0  0  0
   -1.1800   -1.2600    0.0000 C   0  0  0  0  0  0  0  0  0  0  0  0
   -2.4700   -0.5100    0.0000 N   0  0  0  0  0  0  0  0  0  0  0  0
   -2.4700    0.9600    0.0000 C   0  0  0  0  0  0  0  0  0  0  0  0
   -3.7702    1.7080    0.0000 N   0  0  0  0  0  0  0  0  0  0  0  0
   -1.1800    1.7100    0.0000 N   0  0  0  0  0  0  0  0  0  0  0  0
    0.1200    0.9600    0.0000 C   0  0  0  0  0  0  0  0  0  0  0  0
    1.3500    1.7100    0.0000 N   0  0  0  0  0  0  0  0  0  0  0  0
    2.6500    0.9600    0.0000 C   0  0  0  0  0  0  0  0  0  0  0  0
    2.6500   -0.5100    0.0000 C   0  0  0  0  0  0  0  0  0  0  0  0
    1.3500   -1.2600    0.0000 N   0  0  0  0  0  0  0  0  0  0  0  0
    0.1200   -0.5100    0.0000 C   0  0  0  0  0  0  0  0  0  0  0  0
    3.1627   -1.9196    0.0000 C   0  0  0  0  0  0  0  0  0  0  0  0
  1  2  2  0
  2  3  1  0
  3  4  2  0
  4  5  1  0
  4  6  1  0
  6  7  1  0
  7  8  1  0
  8  9  1  0
  9 10  1  0
 10 11  1  0
 11 12  1  0
  7 12  2  0
  2 12  1  0
 10 13  1  0
M  END
>  <cdk:Title>  (545) 
73573-51-0

>  <1A2>  (545) 
N

>  <2A6>  (545) 
N

>  <2B6>  (545) 
N

>  <2C8>  (545) 
N

>  <2C9>  (545) 
N

>  <2C19>  (545) 
N

>  <2D6>  (545) 
N

>  <2E1>  (545) 
N

>  <3A4>  (545) 
N

>  <Citation>  (545) 
Nucleic Acids Res. 2018. Jan 4;46(D1):D608-17. PMID:29140435
Nucleic Acids Res. 2018 Jan 4;46(D1):D1074-D1082. PMID:29126136
Nucleic Acids Res., 45:D380-388 (2017).  PMID:27924025
Nucleic Acids Res. 2016 Jan 4;44(D1):D1202-13. PMID:26400175

>  <ROMol>  (545) 
<rdkit.Chem.rdchem.Mol object at 0x7c2905d8d000>

>  <Drug_like>  (545) 
True

$$$$
Methyl (methylthio)methyl disulfide
     RDKit          2D

  6  5  0  0  0  0  0  0  0  0999 V2000
    1.1497   -1.6928    0.0000 C   0  0  0  0  0  0  0  0  0  0  0  0
    1.8997   -2.9918    0.0000 S   0  0  0  0  0  0  0  0  0  0  0  0
    3.3997   -2.9918    0.0000 C   0  0  0  0  0  0  0  0  0  0  0  0
    4.1497   -1.6928    0.0000 S   0  0  0  0  0  0  0  0  0  0  0  0
    5.6497   -1.6928    0.0000 S   0  0  0  0  0  0  0  0  0  0  0  0
    6.3997   -0.3937    0.0000 C   0  0  0  0  0  0  0  0  0  0  0  0
  1  2  1  0
  2  3  1  0
  3  4  1  0
  4  5  1  0
  5  6  1  0
M  END
>  <cdk:Title>  (546) 
Methyl (methylthio)methyl disulfide

>  <1A2>  (546) 
N

>  <2A6>  (546) 
N

>  <2B6>  (546) 
N

>  <2C8>  (546) 
N

>  <2C9>  (546) 
N

>  <2C19>  (546) 
N

>  <2D6>  (546) 
N

>  <2E1>  (546) 
N

>  <3A4>  (546) 
N

>  <Citation>  (546) 
Nucleic Acids Res. 2018. Jan 4;46(D1):D608-17. PMID:29140435
Nucleic Acids Res. 2018 Jan 4;46(D1):D1074-D1082. PMID:29126136
Nucleic Acids Res., 45:D380-388 (2017).  PMID:27924025
Nucleic Acids Res. 2016 Jan 4;44(D1):D1202-13. PMID:26400175

>  <ROMol>  (546) 
<rdkit.Chem.rdchem.Mol object at 0x7c2905d8d070>

>  <Drug_like>  (546) 
True

$$$$
(2S)-2-{[(2R)-2-amino-1-hydroxy-4-(methylsulfanyl)butylidene]amino}-4-(C-hydroxy
     RDKit          2D

 18 17  0  0  0  0  0  0  0  0999 V2000
    9.0933   -0.7500    0.0000 N   0  0  0  0  0  0  0  0  0  0  0  0
    7.7942   -0.0000    0.0000 C   0  0  0  0  0  0  0  0  0  0  0  0
    7.7942    1.5000    0.0000 O   0  0  0  0  0  0  0  0  0  0  0  0
    6.4952   -0.7500    0.0000 C   0  0  0  0  0  0  0  0  0  0  0  0
    5.2225   -2.2668    0.0000 N   0  0  0  0  0  0  0  0  0  0  0  0
    5.1962   -0.0000    0.0000 C   0  0  0  0  0  0  0  0  0  0  0  0
    5.1962    1.5000    0.0000 C   0  0  0  0  0  0  0  0  0  0  0  0
    3.8971    2.2500    0.0000 S   0  0  0  0  0  0  0  0  0  0  0  0
    3.8971    3.7500    0.0000 C   0  0  0  0  0  0  0  0  0  0  0  0
   10.3923   -0.0000    0.0000 C   0  0  0  0  0  0  0  0  0  0  0  0
   11.6913   -0.7500    0.0000 C   0  0  0  0  0  0  0  0  0  0  0  0
   11.6913   -2.2500    0.0000 C   0  0  0  0  0  0  0  0  0  0  0  0
   12.9904   -3.0000    0.0000 C   0  0  0  0  0  0  0  0  0  0  0  0
   12.9904   -4.5000    0.0000 N   0  0  0  0  0  0  0  0  0  0  0  0
   14.2894   -2.2500    0.0000 O   0  0  0  0  0  0  0  0  0  0  0  0
   11.6650    1.5168    0.0000 C   0  0  0  0  0  0  0  0  0  0  0  0
   13.1422    1.2563    0.0000 O   0  0  0  0  0  0  0  0  0  0  0  0
   11.1520    2.9263    0.0000 O   0  0  0  0  0  0  0  0  0  0  0  0
  1  2  1  0
  2  3  2  0
  2  4  1  0
  4  5  1  0
  4  6  1  0
  6  7  1  0
  7  8  1  0
  8  9  1  0
  1 10  1  0
 10 11  1  0
 11 12  1  0
 12 13  1  0
 13 14  1  0
 13 15  2  0
 10 16  1  0
 16 17  1  0
 16 18  2  0
M  END
>  <cdk:Title>  (547) 
(2S)-2-{[(2R)-2-amino-1-hydroxy-4-(methylsulfanyl)butylidene]amino}-4-(C-hydroxycarbonimidoyl)butanoic acid

>  <1A2>  (547) 
N

>  <2A6>  (547) 
N

>  <2B6>  (547) 
N

>  <2C8>  (547) 
N

>  <2C9>  (547) 
N

>  <2C19>  (547) 
N

>  <2D6>  (547) 
N

>  <2E1>  (547) 
N

>  <3A4>  (547) 
N

>  <Citation>  (547) 
Nucleic Acids Res. 2018. Jan 4;46(D1):D608-17. PMID:29140435
Nucleic Acids Res. 2018 Jan 4;46(D1):D1074-D1082. PMID:29126136
Nucleic Acids Res., 45:D380-388 (2017).  PMID:27924025
Nucleic Acids Res. 2016 Jan 4;44(D1):D1202-13. PMID:26400175

>  <ROMol>  (547) 
<rdkit.Chem.rdchem.Mol object at 0x7c2905d8d0e0>

>  <Drug_like>  (547) 
True

$$$$
2-Phenylethyl pentanoate
     RDKit          2D

 15 15  0  0  0  0  0  0  0  0999 V2000
   -8.2966    7.7386    0.0000 C   0  0  0  0  0  0  0  0  0  0  0  0
   -6.7966    7.7386    0.0000 C   0  0  0  0  0  0  0  0  0  0  0  0
   -6.0466    6.4396    0.0000 C   0  0  0  0  0  0  0  0  0  0  0  0
   -4.0666    6.4396    0.0000 C   0  0  0  0  0  0  0  0  0  0  0  0
   -3.3166    5.1406    0.0000 C   0  0  0  0  0  0  0  0  0  0  0  0
   -4.0666    3.8415    0.0000 O   0  0  0  0  0  0  0  0  0  0  0  0
   -1.8166    5.1406    0.0000 O   0  0  0  0  0  0  0  0  0  0  0  0
   -1.0666    3.8415    0.0000 C   0  0  0  0  0  0  0  0  0  0  0  0
    0.4334    3.8415    0.0000 C   0  0  0  0  0  0  0  0  0  0  0  0
    1.1834    2.5425    0.0000 C   0  0  0  0  0  0  0  0  0  0  0  0
    2.6843    2.5430    0.0000 C   0  0  0  0  0  0  0  0  0  0  0  0
    3.4343    1.2439    0.0000 C   0  0  0  0  0  0  0  0  0  0  0  0
    2.6834   -0.0556    0.0000 C   0  0  0  0  0  0  0  0  0  0  0  0
    1.1826   -0.0561    0.0000 C   0  0  0  0  0  0  0  0  0  0  0  0
    0.4326    1.2430    0.0000 C   0  0  0  0  0  0  0  0  0  0  0  0
  1  2  1  0
  2  3  1  0
  3  4  1  0
  4  5  1  0
  5  6  2  0
  5  7  1  0
  7  8  1  0
  8  9  1  0
  9 10  1  0
 10 11  2  0
 11 12  1  0
 12 13  2  0
 13 14  1  0
 14 15  2  0
 10 15  1  0
M  END
>  <cdk:Title>  (548) 
2-Phenylethyl pentanoate

>  <1A2>  (548) 
N

>  <2A6>  (548) 
N

>  <2B6>  (548) 
N

>  <2C8>  (548) 
N

>  <2C9>  (548) 
N

>  <2C19>  (548) 
N

>  <2D6>  (548) 
N

>  <2E1>  (548) 
N

>  <3A4>  (548) 
N

>  <Citation>  (548) 
Nucleic Acids Res. 2018. Jan 4;46(D1):D608-17. PMID:29140435
Nucleic Acids Res. 2018 Jan 4;46(D1):D1074-D1082. PMID:29126136
Nucleic Acids Res., 45:D380-388 (2017).  PMID:27924025
Nucleic Acids Res. 2016 Jan 4;44(D1):D1202-13. PMID:26400175

>  <ROMol>  (548) 
<rdkit.Chem.rdchem.Mol object at 0x7c2905d8d150>

>  <Drug_like>  (548) 
True

$$$$
N4-Acetylaminobutanal
     RDKit          2D

  9  8  0  0  0  0  0  0  0  0999 V2000
    2.1824   -2.4900    0.0000 O   0  0  0  0  0  0  0  0  0  0  0  0
    2.1824   -0.9900    0.0000 C   0  0  0  0  0  0  0  0  0  0  0  0
    3.4814   -0.2400    0.0000 N   0  0  0  0  0  0  0  0  0  0  0  0
    4.7805   -0.9900    0.0000 C   0  0  0  0  0  0  0  0  0  0  0  0
    6.4952   -0.0000    0.0000 C   0  0  0  0  0  0  0  0  0  0  0  0
    7.7942   -0.7500    0.0000 C   0  0  0  0  0  0  0  0  0  0  0  0
    9.0933   -0.0000    0.0000 C   0  0  0  0  0  0  0  0  0  0  0  0
   10.3923   -0.7500    0.0000 O   0  0  0  0  0  0  0  0  0  0  0  0
    0.8833   -0.2400    0.0000 C   0  0  0  0  0  0  0  0  0  0  0  0
  1  2  2  0
  2  3  1  0
  3  4  1  0
  4  5  1  0
  5  6  1  0
  6  7  1  0
  7  8  2  0
  2  9  1  0
M  END
>  <cdk:Title>  (549) 
N4-Acetylaminobutanal

>  <1A2>  (549) 
N

>  <2A6>  (549) 
N

>  <2B6>  (549) 
N

>  <2C8>  (549) 
N

>  <2C9>  (549) 
N

>  <2C19>  (549) 
N

>  <2D6>  (549) 
N

>  <2E1>  (549) 
N

>  <3A4>  (549) 
N

>  <Citation>  (549) 
Nucleic Acids Res. 2018. Jan 4;46(D1):D608-17. PMID:29140435
Nucleic Acids Res. 2018 Jan 4;46(D1):D1074-D1082. PMID:29126136
Nucleic Acids Res., 45:D380-388 (2017).  PMID:27924025
Nucleic Acids Res. 2016 Jan 4;44(D1):D1202-13. PMID:26400175

>  <ROMol>  (549) 
<rdkit.Chem.rdchem.Mol object at 0x7c2905d8d1c0>

>  <Drug_like>  (549) 
True

$$$$
trans-4-Hydroxycyclohexylacetic acid
     RDKit          2D

 11 11  0  0  0  0  0  0  0  0999 V2000
   -2.2487    2.4633    0.0000 C   0  0  0  0  0  0  0  0  0  0  0  0
   -0.7724    2.1979    0.0000 C   0  0  0  0  0  0  0  0  0  0  0  0
    0.2241   -0.5680    0.0000 C   0  0  0  0  0  0  0  0  0  0  0  0
    1.5231    0.1820    0.0000 C   0  0  0  0  0  0  0  0  0  0  0  0
    2.8077   -0.5429    0.0000 C   0  0  0  0  0  0  0  0  0  0  0  0
    2.8331   -2.0870    0.0000 C   0  0  0  0  0  0  0  0  0  0  0  0
    1.5341   -2.8370    0.0000 C   0  0  0  0  0  0  0  0  0  0  0  0
    0.2096   -2.0429    0.0000 C   0  0  0  0  0  0  0  0  0  0  0  0
    3.3539   -3.4937    0.0000 O   0  0  0  0  0  0  0  0  0  0  0  0
   -3.2167    1.3174    0.0000 O   0  0  0  0  0  0  0  0  0  0  0  0
   -2.7571    3.8745    0.0000 O   0  0  0  0  0  0  0  0  0  0  0  0
  1  2  1  0
  2  3  1  0
  3  4  1  0
  4  5  1  0
  5  6  1  0
  6  7  1  0
  7  8  1  0
  3  8  1  0
  6  9  1  0
  1 10  2  0
  1 11  1  0
M  END
>  <cdk:Title>  (550) 
trans-4-Hydroxycyclohexylacetic acid

>  <1A2>  (550) 
N

>  <2A6>  (550) 
N

>  <2B6>  (550) 
N

>  <2C8>  (550) 
N

>  <2C9>  (550) 
N

>  <2C19>  (550) 
N

>  <2D6>  (550) 
N

>  <2E1>  (550) 
N

>  <3A4>  (550) 
N

>  <Citation>  (550) 
Nucleic Acids Res. 2018. Jan 4;46(D1):D608-17. PMID:29140435
Nucleic Acids Res. 2018 Jan 4;46(D1):D1074-D1082. PMID:29126136
Nucleic Acids Res., 45:D380-388 (2017).  PMID:27924025
Nucleic Acids Res. 2016 Jan 4;44(D1):D1202-13. PMID:26400175

>  <ROMol>  (550) 
<rdkit.Chem.rdchem.Mol object at 0x7c2905d8d2a0>

>  <Drug_like>  (550) 
True

$$$$
1_4-alpha-D-Glucan
     RDKit          2D

 25 26  0  0  0  0  0  0  0  0999 V2000
    7.8529    1.4048    0.0000 C   0  0  0  0  0  0  0  0  0  0  0  0
    8.1183   -0.0614    0.0000 C   0  0  0  0  0  0  0  0  0  0  0  0
    6.9746   -1.0408    0.0000 C   0  0  0  0  0  0  0  0  0  0  0  0
    5.5403   -0.5282    0.0000 C   0  0  0  0  0  0  0  0  0  0  0  0
    5.2748    0.9380    0.0000 C   0  0  0  0  0  0  0  0  0  0  0  0
    6.4400    1.9112    0.0000 O   0  0  0  0  0  0  0  0  0  0  0  0
    3.8664    0.4217    0.0000 O   0  0  0  0  0  0  0  0  0  0  0  0
    1.9783    1.9986    0.0000 C   0  0  0  0  0  0  0  0  0  0  0  0
    1.2386    0.7052    0.0000 C   0  0  0  0  0  0  0  0  0  0  0  0
    0.9839   -0.7730    0.0000 C   0  0  0  0  0  0  0  0  0  0  0  0
   -0.4236   -1.2915    0.0000 O   0  0  0  0  0  0  0  0  0  0  0  0
   -0.2622    0.6995    0.0000 O   0  0  0  0  0  0  0  0  0  0  0  0
   -1.0357    2.0059    0.0000 C   0  0  0  0  0  0  0  0  0  0  0  0
   -0.2960    3.2993    0.0000 C   0  0  0  0  0  0  0  0  0  0  0  0
    1.2271    3.3037    0.0000 C   0  0  0  0  0  0  0  0  0  0  0  0
    2.6366    3.8169    0.0000 O   0  0  0  0  0  0  0  0  0  0  0  0
   -0.0405    4.7773    0.0000 O   0  0  0  0  0  0  0  0  0  0  0  0
   -2.1909    2.9626    0.0000 O   0  0  0  0  0  0  0  0  0  0  0  0
   -3.5972    2.4406    0.0000 C   0  0  0  0  0  0  0  0  0  0  0  0
    5.2878   -2.0068    0.0000 O   0  0  0  0  0  0  0  0  0  0  0  0
    8.1319   -1.9951    0.0000 O   0  0  0  0  0  0  0  0  0  0  0  0
    9.5246    0.4607    0.0000 O   0  0  0  0  0  0  0  0  0  0  0  0
   10.6798   -0.4961    0.0000 C   0  0  0  0  0  0  0  0  0  0  0  0
    8.1062    2.8833    0.0000 C   0  0  0  0  0  0  0  0  0  0  0  0
    9.5133    3.4031    0.0000 O   0  0  0  0  0  0  0  0  0  0  0  0
  1  2  1  0
  2  3  1  0
  3  4  1  0
  4  5  1  0
  5  6  1  0
  1  6  1  0
  5  7  1  0
  7  8  1  0
  8  9  1  0
  9 10  1  0
 10 11  1  0
  9 12  1  0
 12 13  1  0
 13 14  1  0
 14 15  1  0
  8 15  1  0
 15 16  1  0
 14 17  1  0
 13 18  1  0
 18 19  1  0
  4 20  1  0
  3 21  1  0
  2 22  1  0
 22 23  1  0
  1 24  1  0
 24 25  1  0
M  END
>  <cdk:Title>  (551) 
1_4-alpha-D-Glucan

>  <1A2>  (551) 
N

>  <2A6>  (551) 
N

>  <2B6>  (551) 
N

>  <2C8>  (551) 
N

>  <2C9>  (551) 
N

>  <2C19>  (551) 
N

>  <2D6>  (551) 
N

>  <2E1>  (551) 
N

>  <3A4>  (551) 
N

>  <Citation>  (551) 
Nucleic Acids Res. 2018. Jan 4;46(D1):D608-17. PMID:29140435
Nucleic Acids Res. 2018 Jan 4;46(D1):D1074-D1082. PMID:29126136
Nucleic Acids Res., 45:D380-388 (2017).  PMID:27924025
Nucleic Acids Res. 2016 Jan 4;44(D1):D1202-13. PMID:26400175

>  <ROMol>  (551) 
<rdkit.Chem.rdchem.Mol object at 0x7c2905d8d3f0>

>  <Drug_like>  (551) 
True

$$$$
3-Methylphenylacetic acid
     RDKit          2D

 11 11  0  0  0  0  0  0  0  0999 V2000
   -3.8627    1.4156    0.0000 O   0  0  0  0  0  0  0  0  0  0  0  0
   -2.5624    0.6678    0.0000 C   0  0  0  0  0  0  0  0  0  0  0  0
   -2.5599   -0.8322    0.0000 O   0  0  0  0  0  0  0  0  0  0  0  0
   -1.2646    1.4199    0.0000 C   0  0  0  0  0  0  0  0  0  0  0  0
    0.0356    0.6721    0.0000 C   0  0  0  0  0  0  0  0  0  0  0  0
    1.3352    1.4230    0.0000 C   0  0  0  0  0  0  0  0  0  0  0  0
    2.6342    0.6730    0.0000 C   0  0  0  0  0  0  0  0  0  0  0  0
    3.9334    1.4227    0.0000 C   0  0  0  0  0  0  0  0  0  0  0  0
    2.6337   -0.8279    0.0000 C   0  0  0  0  0  0  0  0  0  0  0  0
    1.3392   -1.5701    0.0000 C   0  0  0  0  0  0  0  0  0  0  0  0
    0.0402   -0.8201    0.0000 C   0  0  0  0  0  0  0  0  0  0  0  0
  1  2  1  0
  2  3  2  0
  2  4  1  0
  4  5  1  0
  5  6  2  0
  6  7  1  0
  7  8  1  0
  7  9  2  0
  9 10  1  0
 10 11  2  0
  5 11  1  0
M  END
>  <cdk:Title>  (552) 
3-Methylphenylacetic acid

>  <1A2>  (552) 
N

>  <2A6>  (552) 
N

>  <2B6>  (552) 
N

>  <2C8>  (552) 
N

>  <2C9>  (552) 
N

>  <2C19>  (552) 
N

>  <2D6>  (552) 
N

>  <2E1>  (552) 
N

>  <3A4>  (552) 
N

>  <Citation>  (552) 
Nucleic Acids Res. 2018. Jan 4;46(D1):D608-17. PMID:29140435
Nucleic Acids Res. 2018 Jan 4;46(D1):D1074-D1082. PMID:29126136
Nucleic Acids Res., 45:D380-388 (2017).  PMID:27924025
Nucleic Acids Res. 2016 Jan 4;44(D1):D1202-13. PMID:26400175

>  <ROMol>  (552) 
<rdkit.Chem.rdchem.Mol object at 0x7c2905d8d4d0>

>  <Drug_like>  (552) 
True

$$$$
Monoisobutyl phthalic acid
     RDKit          2D

 16 16  0  0  0  0  0  0  0  0999 V2000
   -1.6320    2.7078    0.0000 O   0  0  0  0  0  0  0  0  0  0  0  0
   -1.6345    4.2078    0.0000 C   0  0  0  0  0  0  0  0  0  0  0  0
   -2.9348    4.9556    0.0000 C   0  0  0  0  0  0  0  0  0  0  0  0
   -2.9381    6.9356    0.0000 C   0  0  0  0  0  0  0  0  0  0  0  0
   -4.4124    5.2136    0.0000 C   0  0  0  0  0  0  0  0  0  0  0  0
   -0.3317    1.9600    0.0000 C   0  0  0  0  0  0  0  0  0  0  0  0
    0.9661    2.7122    0.0000 O   0  0  0  0  0  0  0  0  0  0  0  0
   -0.3292    0.4600    0.0000 C   0  0  0  0  0  0  0  0  0  0  0  0
    0.9708   -0.2900    0.0000 C   0  0  0  0  0  0  0  0  0  0  0  0
    0.9708   -1.7900    0.0000 C   0  0  0  0  0  0  0  0  0  0  0  0
   -0.3292   -2.5400    0.0000 C   0  0  0  0  0  0  0  0  0  0  0  0
   -1.6192   -1.7900    0.0000 C   0  0  0  0  0  0  0  0  0  0  0  0
   -1.6192   -0.2900    0.0000 C   0  0  0  0  0  0  0  0  0  0  0  0
    2.2697    0.4602    0.0000 C   0  0  0  0  0  0  0  0  0  0  0  0
    3.5689   -0.2896    0.0000 O   0  0  0  0  0  0  0  0  0  0  0  0
    2.2695    1.9602    0.0000 O   0  0  0  0  0  0  0  0  0  0  0  0
  1  2  1  0
  2  3  1  0
  3  4  1  0
  3  5  1  0
  1  6  1  0
  6  7  2  0
  6  8  1  0
  8  9  2  0
  9 10  1  0
 10 11  2  0
 11 12  1  0
 12 13  2  0
  8 13  1  0
  9 14  1  0
 14 15  1  0
 14 16  2  0
M  END
>  <cdk:Title>  (553) 
Monoisobutyl phthalic acid

>  <1A2>  (553) 
N

>  <2A6>  (553) 
N

>  <2B6>  (553) 
N

>  <2C8>  (553) 
N

>  <2C9>  (553) 
N

>  <2C19>  (553) 
N

>  <2D6>  (553) 
N

>  <2E1>  (553) 
N

>  <3A4>  (553) 
N

>  <Citation>  (553) 
Nucleic Acids Res. 2018. Jan 4;46(D1):D608-17. PMID:29140435
Nucleic Acids Res. 2018 Jan 4;46(D1):D1074-D1082. PMID:29126136
Nucleic Acids Res., 45:D380-388 (2017).  PMID:27924025
Nucleic Acids Res. 2016 Jan 4;44(D1):D1202-13. PMID:26400175

>  <ROMol>  (553) 
<rdkit.Chem.rdchem.Mol object at 0x7c2905d8d540>

>  <Drug_like>  (553) 
True

$$$$
SHYOBUNONE
     RDKit          2D

 16 16  0  0  0  0  0  0  0  0999 V2000
    3.7180   -5.2147    0.0000 C   0  0  0  0  0  0  0  0  0  0  0  0
    4.6824   -4.0658    0.0000 C   0  0  0  0  0  0  0  0  0  0  0  0
    3.6775   -1.3029    0.0000 C   0  0  0  0  0  0  0  0  0  0  0  0
    6.5729   -0.7927    0.0000 C   0  0  0  0  0  0  0  0  0  0  0  0
    2.3775   -2.0529    0.0000 C   0  0  0  0  0  0  0  0  0  0  0  0
    1.0775   -1.3029    0.0000 C   0  0  0  0  0  0  0  0  0  0  0  0
    1.0775    0.1971    0.0000 C   0  0  0  0  0  0  0  0  0  0  0  0
    0.0725    2.9600    0.0000 C   0  0  0  0  0  0  0  0  0  0  0  0
    1.0369    4.1089    0.0000 C   0  0  0  0  0  0  0  0  0  0  0  0
   -2.8229    2.4501    0.0000 C   0  0  0  0  0  0  0  0  0  0  0  0
    2.3775    0.9471    0.0000 C   0  0  0  0  0  0  0  0  0  0  0  0
    3.6775    0.1971    0.0000 C   0  0  0  0  0  0  0  0  0  0  0  0
    5.6274   -0.1465    0.0000 C   0  0  0  0  0  0  0  0  0  0  0  0
    6.1406   -1.5560    0.0000 C   0  0  0  0  0  0  0  0  0  0  0  0
    7.5170    2.1058    0.0000 C   0  0  0  0  0  0  0  0  0  0  0  0
    2.3775    2.4471    0.0000 O   0  0  0  0  0  0  0  0  0  0  0  0
  1  2  2  0
  3  2  1  0
  3  4  1  1
  3  5  1  0
  5  6  1  0
  6  7  1  0
  7  8  1  0
  8  9  1  0
  8 10  1  0
  7 11  1  0
 11 12  1  0
  3 12  1  0
 12 13  1  0
 13 14  2  0
 13 15  1  0
 11 16  2  0
M  END
>  <cdk:Title>  (554) 
SHYOBUNONE

>  <1A2>  (554) 
N

>  <2A6>  (554) 
N

>  <2B6>  (554) 
N

>  <2C8>  (554) 
N

>  <2C9>  (554) 
N

>  <2C19>  (554) 
N

>  <2D6>  (554) 
N

>  <2E1>  (554) 
N

>  <3A4>  (554) 
N

>  <Citation>  (554) 
Nucleic Acids Res. 2018. Jan 4;46(D1):D608-17. PMID:29140435
Nucleic Acids Res. 2018 Jan 4;46(D1):D1074-D1082. PMID:29126136
Nucleic Acids Res., 45:D380-388 (2017).  PMID:27924025
Nucleic Acids Res. 2016 Jan 4;44(D1):D1202-13. PMID:26400175

>  <ROMol>  (554) 
<rdkit.Chem.rdchem.Mol object at 0x7c2905d8d5b0>

>  <Drug_like>  (554) 
True

$$$$
ZINC13521513
     RDKit          2D

 16 17  0  0  0  0  0  0  0  0999 V2000
    1.3353    2.6697    0.0000 C   0  0  0  0  0  0  0  0  0  0  0  0
    2.3391    3.7843    0.0000 O   0  0  0  0  0  0  0  0  0  0  0  0
    1.7986    1.2430    0.0000 C   0  0  0  0  0  0  0  0  0  0  0  0
    1.9557   -0.2448    0.0000 C   0  0  0  0  0  0  0  0  0  0  0  0
    3.4241   -0.5615    0.0000 C   0  0  0  0  0  0  0  0  0  0  0  0
    4.1741    0.7376    0.0000 C   0  0  0  0  0  0  0  0  0  0  0  0
    3.1657    1.8509    0.0000 N   0  0  0  0  0  0  0  0  0  0  0  0
   -1.0709    3.1816    0.0000 N   0  0  0  0  0  0  0  0  0  0  0  0
   -2.1932    2.1832    0.0000 C   0  0  0  0  0  0  0  0  0  0  0  0
   -3.4864    2.9286    0.0000 C   0  0  0  0  0  0  0  0  0  0  0  0
   -4.9130    3.3919    0.0000 O   0  0  0  0  0  0  0  0  0  0  0  0
   -3.1743    4.3958    0.0000 C   0  0  0  0  0  0  0  0  0  0  0  0
   -1.6897    4.5503    0.0000 C   0  0  0  0  0  0  0  0  0  0  0  0
   -0.2647    5.0187    0.0000 C   0  0  0  0  0  0  0  0  0  0  0  0
    0.8535    4.0189    0.0000 O   0  0  0  0  0  0  0  0  0  0  0  0
    0.0421    6.4870    0.0000 O   0  0  0  0  0  0  0  0  0  0  0  0
  1  2  2  0
  1  3  1  0
  3  4  1  0
  4  5  1  0
  5  6  1  0
  6  7  1  0
  3  7  1  0
  1  8  1  0
  8  9  1  0
  9 10  1  0
 10 11  1  0
 10 12  1  0
 12 13  1  0
  8 13  1  0
 13 14  1  0
 14 15  2  0
 14 16  1  0
M  END
>  <cdk:Title>  (555) 
ZINC13521513

>  <1A2>  (555) 
N

>  <2A6>  (555) 
N

>  <2B6>  (555) 
N

>  <2C8>  (555) 
N

>  <2C9>  (555) 
N

>  <2C19>  (555) 
N

>  <2D6>  (555) 
N

>  <2E1>  (555) 
N

>  <3A4>  (555) 
N

>  <Citation>  (555) 
Nucleic Acids Res. 2018. Jan 4;46(D1):D608-17. PMID:29140435
Nucleic Acids Res. 2018 Jan 4;46(D1):D1074-D1082. PMID:29126136
Nucleic Acids Res., 45:D380-388 (2017).  PMID:27924025
Nucleic Acids Res. 2016 Jan 4;44(D1):D1202-13. PMID:26400175

>  <ROMol>  (555) 
<rdkit.Chem.rdchem.Mol object at 0x7c2905d8d620>

>  <Drug_like>  (555) 
True

$$$$
3-(3_5-Dihydroxyphenyl)-2-propenoic acid
     RDKit          2D

 13 13  0  0  0  0  0  0  0  0999 V2000
   -0.9731    2.4901    0.0000 C   0  0  0  0  0  0  0  0  0  0  0  0
   -2.3827    1.9773    0.0000 C   0  0  0  0  0  0  0  0  0  0  0  0
   -2.6434    0.5001    0.0000 C   0  0  0  0  0  0  0  0  0  0  0  0
   -1.4945   -0.4643    0.0000 O   0  0  0  0  0  0  0  0  0  0  0  0
   -4.0530   -0.0127    0.0000 O   0  0  0  0  0  0  0  0  0  0  0  0
    0.7415    1.4998    0.0000 C   0  0  0  0  0  0  0  0  0  0  0  0
    2.0415    2.2498    0.0000 C   0  0  0  0  0  0  0  0  0  0  0  0
    3.3415    1.4998    0.0000 C   0  0  0  0  0  0  0  0  0  0  0  0
    3.3415   -0.0002    0.0000 C   0  0  0  0  0  0  0  0  0  0  0  0
    2.0415   -0.7502    0.0000 C   0  0  0  0  0  0  0  0  0  0  0  0
    0.7415   -0.0002    0.0000 C   0  0  0  0  0  0  0  0  0  0  0  0
    2.0415   -2.2502    0.0000 O   0  0  0  0  0  0  0  0  0  0  0  0
    4.6404    2.2500    0.0000 O   0  0  0  0  0  0  0  0  0  0  0  0
  1  2  2  0
  2  3  1  0
  3  4  2  0
  3  5  1  0
  1  6  1  0
  6  7  2  0
  7  8  1  0
  8  9  2  0
  9 10  1  0
 10 11  2  0
  6 11  1  0
 10 12  1  0
  8 13  1  0
M  END
>  <cdk:Title>  (556) 
3-(3_5-Dihydroxyphenyl)-2-propenoic acid

>  <1A2>  (556) 
N

>  <2A6>  (556) 
N

>  <2B6>  (556) 
N

>  <2C8>  (556) 
N

>  <2C9>  (556) 
N

>  <2C19>  (556) 
N

>  <2D6>  (556) 
N

>  <2E1>  (556) 
N

>  <3A4>  (556) 
N

>  <Citation>  (556) 
Nucleic Acids Res. 2018. Jan 4;46(D1):D608-17. PMID:29140435
Nucleic Acids Res. 2018 Jan 4;46(D1):D1074-D1082. PMID:29126136
Nucleic Acids Res., 45:D380-388 (2017).  PMID:27924025
Nucleic Acids Res. 2016 Jan 4;44(D1):D1202-13. PMID:26400175

>  <ROMol>  (556) 
<rdkit.Chem.rdchem.Mol object at 0x7c2905d8d690>

>  <Drug_like>  (556) 
True

$$$$
(+)-cis-Carveol
     RDKit          2D

 11 11  0  0  0  0  0  0  0  0999 V2000
   -2.4744    2.4696    0.0000 C   0  0  0  0  0  0  0  0  0  0  0  0
   -2.7347    0.9924    0.0000 C   0  0  0  0  0  0  0  0  0  0  0  0
   -4.1442    0.4792    0.0000 C   0  0  0  0  0  0  0  0  0  0  0  0
   -0.8500   -0.5887    0.0000 C   0  0  0  0  0  0  0  0  0  0  0  0
   -0.1000   -1.8887    0.0000 C   0  0  0  0  0  0  0  0  0  0  0  0
    1.4000   -1.8887    0.0000 C   0  0  0  0  0  0  0  0  0  0  0  0
    2.1500   -0.5887    0.0000 C   0  0  0  0  0  0  0  0  0  0  0  0
    3.6500   -0.5887    0.0000 C   0  0  0  0  0  0  0  0  0  0  0  0
    1.4000    0.7113    0.0000 C   0  0  0  0  0  0  0  0  0  0  0  0
    2.8096    1.2240    0.0000 O   0  0  0  0  0  0  0  0  0  0  0  0
   -0.1000    0.7113    0.0000 C   0  0  0  0  0  0  0  0  0  0  0  0
  1  2  1  0
  2  3  2  0
  2  4  1  0
  4  5  1  0
  5  6  1  0
  6  7  2  0
  7  8  1  0
  7  9  1  0
  9 10  1  0
  9 11  1  0
  4 11  1  0
M  END
>  <cdk:Title>  (557) 
(+)-cis-Carveol

>  <1A2>  (557) 
N

>  <2A6>  (557) 
N

>  <2B6>  (557) 
N

>  <2C8>  (557) 
N

>  <2C9>  (557) 
N

>  <2C19>  (557) 
N

>  <2D6>  (557) 
N

>  <2E1>  (557) 
N

>  <3A4>  (557) 
N

>  <Citation>  (557) 
Nucleic Acids Res. 2018. Jan 4;46(D1):D608-17. PMID:29140435
Nucleic Acids Res. 2018 Jan 4;46(D1):D1074-D1082. PMID:29126136
Nucleic Acids Res., 45:D380-388 (2017).  PMID:27924025
Nucleic Acids Res. 2016 Jan 4;44(D1):D1202-13. PMID:26400175

>  <ROMol>  (557) 
<rdkit.Chem.rdchem.Mol object at 0x7c2905d8d700>

>  <Drug_like>  (557) 
True

$$$$
Tracheloside
     RDKit          2D

 39 42  0  0  0  0  0  0  0  0999 V2000
    2.0126   -3.0931    0.0000 C   0  0  0  0  0  0  0  0  0  0  0  0
    0.5856   -2.6309    0.0000 O   0  0  0  0  0  0  0  0  0  0  0  0
   -0.5282   -3.6355    0.0000 C   0  0  0  0  0  0  0  0  0  0  0  0
   -1.9559   -3.1726    0.0000 C   0  0  0  0  0  0  0  0  0  0  0  0
   -3.0697   -4.1772    0.0000 C   0  0  0  0  0  0  0  0  0  0  0  0
   -2.7559   -5.6449    0.0000 C   0  0  0  0  0  0  0  0  0  0  0  0
   -4.5826   -7.2926    0.0000 C   0  0  0  0  0  0  0  0  0  0  0  0
   -7.3795   -6.3865    0.0000 C   0  0  0  0  0  0  0  0  0  0  0  0
   -6.7740   -5.0222    0.0000 C   0  0  0  0  0  0  0  0  0  0  0  0
   -7.8846   -4.0109    0.0000 O   0  0  0  0  0  0  0  0  0  0  0  0
   -9.1808   -4.7700    0.0000 C   0  0  0  0  0  0  0  0  0  0  0  0
   -8.8713   -6.2302    0.0000 C   0  0  0  0  0  0  0  0  0  0  0  0
   -9.8769   -8.9929    0.0000 C   0  0  0  0  0  0  0  0  0  0  0  0
  -11.3541   -9.2533    0.0000 C   0  0  0  0  0  0  0  0  0  0  0  0
  -12.3184   -8.1033    0.0000 C   0  0  0  0  0  0  0  0  0  0  0  0
  -13.7956   -8.3638    0.0000 C   0  0  0  0  0  0  0  0  0  0  0  0
  -14.3085   -9.7743    0.0000 C   0  0  0  0  0  0  0  0  0  0  0  0
  -13.3442  -10.9243    0.0000 C   0  0  0  0  0  0  0  0  0  0  0  0
  -11.8669  -10.6638    0.0000 C   0  0  0  0  0  0  0  0  0  0  0  0
  -13.8574  -12.3338    0.0000 O   0  0  0  0  0  0  0  0  0  0  0  0
  -12.8934  -13.4830    0.0000 C   0  0  0  0  0  0  0  0  0  0  0  0
  -15.7857  -10.0348    0.0000 O   0  0  0  0  0  0  0  0  0  0  0  0
  -16.7499   -8.8857    0.0000 C   0  0  0  0  0  0  0  0  0  0  0  0
  -17.7103  -10.0249    0.0000 C   0  0  0  0  0  0  0  0  0  0  0  0
  -19.2094   -9.7552    0.0000 C   0  0  0  0  0  0  0  0  0  0  0  0
  -19.7134   -8.3362    0.0000 C   0  0  0  0  0  0  0  0  0  0  0  0
  -18.7530   -7.1970    0.0000 C   0  0  0  0  0  0  0  0  0  0  0  0
  -18.2365   -5.7887    0.0000 C   0  0  0  0  0  0  0  0  0  0  0  0
  -19.1978   -4.6372    0.0000 O   0  0  0  0  0  0  0  0  0  0  0  0
  -17.2757   -7.4615    0.0000 O   0  0  0  0  0  0  0  0  0  0  0  0
  -20.6729   -7.1832    0.0000 O   0  0  0  0  0  0  0  0  0  0  0  0
  -20.6882  -10.0063    0.0000 O   0  0  0  0  0  0  0  0  0  0  0  0
  -18.2277  -11.4328    0.0000 O   0  0  0  0  0  0  0  0  0  0  0  0
  -10.3632   -6.3865    0.0000 O   0  0  0  0  0  0  0  0  0  0  0  0
  -10.5528   -4.1637    0.0000 O   0  0  0  0  0  0  0  0  0  0  0  0
   -1.3283   -6.1079    0.0000 C   0  0  0  0  0  0  0  0  0  0  0  0
   -0.2144   -5.1032    0.0000 C   0  0  0  0  0  0  0  0  0  0  0  0
    1.2126   -5.5652    0.0000 O   0  0  0  0  0  0  0  0  0  0  0  0
    1.5260   -7.0321    0.0000 C   0  0  0  0  0  0  0  0  0  0  0  0
  1  2  1  0
  2  3  1  0
  3  4  2  0
  4  5  1  0
  5  6  2  0
  6  7  1  0
  7  8  1  0
  8  9  1  0
  9 10  1  0
 10 11  1  0
 11 12  1  0
  8 12  1  0
 12 13  1  0
 13 14  1  0
 14 15  2  0
 15 16  1  0
 16 17  2  0
 17 18  1  0
 18 19  2  0
 14 19  1  0
 18 20  1  0
 20 21  1  0
 17 22  1  0
 22 23  1  0
 23 24  1  0
 24 25  1  0
 25 26  1  0
 26 27  1  0
 27 28  1  0
 28 29  1  0
 27 30  1  0
 23 30  1  0
 26 31  1  0
 25 32  1  0
 24 33  1  0
 12 34  1  1
 11 35  2  0
  6 36  1  0
 36 37  2  0
  3 37  1  0
 37 38  1  0
 38 39  1  0
M  END
>  <cdk:Title>  (558) 
Tracheloside

>  <1A2>  (558) 
N

>  <2A6>  (558) 
N

>  <2B6>  (558) 
N

>  <2C8>  (558) 
N

>  <2C9>  (558) 
N

>  <2C19>  (558) 
N

>  <2D6>  (558) 
N

>  <2E1>  (558) 
N

>  <3A4>  (558) 
N

>  <Citation>  (558) 
Nucleic Acids Res. 2018. Jan 4;46(D1):D608-17. PMID:29140435
Nucleic Acids Res. 2018 Jan 4;46(D1):D1074-D1082. PMID:29126136
Nucleic Acids Res., 45:D380-388 (2017).  PMID:27924025
Nucleic Acids Res. 2016 Jan 4;44(D1):D1202-13. PMID:26400175

>  <ROMol>  (558) 
<rdkit.Chem.rdchem.Mol object at 0x7c2905d8d770>

>  <Drug_like>  (558) 
True

$$$$
Liquiritic acid
     RDKit          2D

 34 38  0  0  0  0  0  0  0  0999 V2000
   -4.3412    2.7636    0.0000 C   0  0  0  0  0  0  0  0  0  0  0  0
   -5.6312    2.0136    0.0000 C   0  0  0  0  0  0  0  0  0  0  0  0
   -5.6212    0.5236    0.0000 C   0  0  0  0  0  0  0  0  0  0  0  0
   -4.3212   -0.2264    0.0000 C   0  0  0  0  0  0  0  0  0  0  0  0
   -3.0312    0.5336    0.0000 C   0  0  0  0  0  0  0  0  0  0  0  0
   -1.7512   -0.2064    0.0000 C   0  0  0  0  0  0  0  0  0  0  0  0
   -0.4512    0.5436    0.0000 C   0  0  0  0  0  0  0  0  0  0  0  0
   -0.4612    2.0436    0.0000 C   0  0  0  0  0  0  0  0  0  0  0  0
   -1.7612    2.7736    0.0000 C   0  0  0  0  0  0  0  0  0  0  0  0
   -3.0412    2.0236    0.0000 C   0  0  0  0  0  0  0  0  0  0  0  0
   -2.5488    4.9220    0.0000 C   0  0  0  0  0  0  0  0  0  0  0  0
   -1.7712    4.2636    0.0000 C   0  0  0  0  0  0  0  0  0  0  0  0
   -0.4812    5.0136    0.0000 C   0  0  0  0  0  0  0  0  0  0  0  0
    0.8088    4.2736    0.0000 C   0  0  0  0  0  0  0  0  0  0  0  0
    0.8188    2.7836    0.0000 C   0  0  0  0  0  0  0  0  0  0  0  0
    2.1188    2.0536    0.0000 C   0  0  0  0  0  0  0  0  0  0  0  0
    3.3588    2.6336    0.0000 C   0  0  0  0  0  0  0  0  0  0  0  0
    3.3788    4.2936    0.0000 C   0  0  0  0  0  0  0  0  0  0  0  0
    2.0888    5.0336    0.0000 C   0  0  0  0  0  0  0  0  0  0  0  0
    2.0688    6.5236    0.0000 C   0  0  0  0  0  0  0  0  0  0  0  0
    3.3588    7.2936    0.0000 C   0  0  0  0  0  0  0  0  0  0  0  0
    4.6788    6.5636    0.0000 C   0  0  0  0  0  0  0  0  0  0  0  0
    4.6788    5.0636    0.0000 C   0  0  0  0  0  0  0  0  0  0  0  0
    5.2097    9.5778    0.0000 C   0  0  0  0  0  0  0  0  0  0  0  0
    6.6912    9.3426    0.0000 O   0  0  0  0  0  0  0  0  0  0  0  0
    4.6726   10.9783    0.0000 O   0  0  0  0  0  0  0  0  0  0  0  0
    1.4336    9.5155    0.0000 C   0  0  0  0  0  0  0  0  0  0  0  0
    5.9242    2.8224    0.0000 C   0  0  0  0  0  0  0  0  0  0  0  0
   -0.1694    0.0146    0.0000 C   0  0  0  0  0  0  0  0  0  0  0  0
   -4.3245    5.7211    0.0000 O   0  0  0  0  0  0  0  0  0  0  0  0
    2.0902    0.5828    0.0000 C   0  0  0  0  0  0  0  0  0  0  0  0
   -5.8965   -2.1159    0.0000 C   0  0  0  0  0  0  0  0  0  0  0  0
   -2.4180   -2.4673    0.0000 C   0  0  0  0  0  0  0  0  0  0  0  0
   -7.0996    0.7773    0.0000 O   0  0  0  0  0  0  0  0  0  0  0  0
  1  2  1  0
  2  3  1  0
  3  4  1  0
  4  5  1  0
  5  6  1  0
  6  7  1  0
  7  8  1  0
  8  9  1  0
  9 10  1  0
  1 10  1  0
  5 10  1  0
 10 11  1  1
  9 12  1  0
 12 13  1  0
 13 14  2  0
 14 15  1  0
  8 15  1  0
 15 16  1  0
 16 17  1  0
 17 18  1  0
 18 19  1  0
 14 19  1  0
 19 20  1  0
 20 21  1  0
 21 22  1  0
 22 23  1  0
 18 23  1  0
 21 24  1  0
 24 25  1  0
 24 26  2  0
 21 27  1  1
 18 28  1  1
 15 29  1  6
 12 30  2  0
  8 31  1  1
  4 32  1  0
  4 33  1  0
  3 34  1  0
M  END
>  <cdk:Title>  (559) 
Liquiritic acid

>  <1A2>  (559) 
N

>  <2A6>  (559) 
N

>  <2B6>  (559) 
N

>  <2C8>  (559) 
N

>  <2C9>  (559) 
N

>  <2C19>  (559) 
N

>  <2D6>  (559) 
N

>  <2E1>  (559) 
N

>  <3A4>  (559) 
N

>  <Citation>  (559) 
Nucleic Acids Res. 2018. Jan 4;46(D1):D608-17. PMID:29140435
Nucleic Acids Res. 2018 Jan 4;46(D1):D1074-D1082. PMID:29126136
Nucleic Acids Res., 45:D380-388 (2017).  PMID:27924025
Nucleic Acids Res. 2016 Jan 4;44(D1):D1202-13. PMID:26400175

>  <ROMol>  (559) 
<rdkit.Chem.rdchem.Mol object at 0x7c2905d8d7e0>

>  <Drug_like>  (559) 
True

$$$$
Dihydroorotic acid
     RDKit          2D

 11 11  0  0  0  0  0  0  0  0999 V2000
   -1.1217   -1.9897    0.0000 O   0  0  0  0  0  0  0  0  0  0  0  0
   -0.1576   -0.8405    0.0000 C   0  0  0  0  0  0  0  0  0  0  0  0
   -0.6708    0.5690    0.0000 O   0  0  0  0  0  0  0  0  0  0  0  0
    1.3196   -1.1008    0.0000 C   0  0  0  0  0  0  0  0  0  0  0  0
    2.6196   -1.8508    0.0000 C   0  0  0  0  0  0  0  0  0  0  0  0
    3.9196   -1.1008    0.0000 C   0  0  0  0  0  0  0  0  0  0  0  0
    5.2185   -1.8510    0.0000 O   0  0  0  0  0  0  0  0  0  0  0  0
    3.9196    0.3992    0.0000 N   0  0  0  0  0  0  0  0  0  0  0  0
    2.6196    1.1492    0.0000 C   0  0  0  0  0  0  0  0  0  0  0  0
    2.6196    2.6492    0.0000 O   0  0  0  0  0  0  0  0  0  0  0  0
    1.3196    0.3992    0.0000 N   0  0  0  0  0  0  0  0  0  0  0  0
  1  2  1  0
  2  3  2  0
  2  4  1  0
  4  5  1  0
  5  6  1  0
  6  7  2  0
  6  8  1  0
  8  9  1  0
  9 10  2  0
  9 11  1  0
  4 11  1  0
M  END
>  <cdk:Title>  (560) 
Dihydroorotic acid

>  <1A2>  (560) 
N

>  <2A6>  (560) 
N

>  <2B6>  (560) 
N

>  <2C8>  (560) 
N

>  <2C9>  (560) 
N

>  <2C19>  (560) 
N

>  <2D6>  (560) 
N

>  <2E1>  (560) 
N

>  <3A4>  (560) 
N

>  <Citation>  (560) 
Nucleic Acids Res. 2018. Jan 4;46(D1):D608-17. PMID:29140435
Nucleic Acids Res. 2018 Jan 4;46(D1):D1074-D1082. PMID:29126136
Nucleic Acids Res., 45:D380-388 (2017).  PMID:27924025
Nucleic Acids Res. 2016 Jan 4;44(D1):D1202-13. PMID:26400175

>  <ROMol>  (560) 
<rdkit.Chem.rdchem.Mol object at 0x7c2905d8d850>

>  <Drug_like>  (560) 
True

$$$$
cis-4-Decenol
     RDKit          2D

 11 10  0  0  0  0  0  0  0  0999 V2000
   -2.5461    0.4500    0.0000 C   0  0  0  0  0  0  0  0  0  0  0  0
   -1.2471    1.2000    0.0000 C   0  0  0  0  0  0  0  0  0  0  0  0
    0.4677    0.2100    0.0000 C   0  0  0  0  0  0  0  0  0  0  0  0
    1.7667    0.9600    0.0000 C   0  0  0  0  0  0  0  0  0  0  0  0
    3.0657    0.2100    0.0000 C   0  0  0  0  0  0  0  0  0  0  0  0
    3.0657   -1.7700    0.0000 C   0  0  0  0  0  0  0  0  0  0  0  0
    5.6118   -3.2400    0.0000 C   0  0  0  0  0  0  0  0  0  0  0  0
    6.9109   -2.4900    0.0000 C   0  0  0  0  0  0  0  0  0  0  0  0
    6.9109   -0.9900    0.0000 C   0  0  0  0  0  0  0  0  0  0  0  0
    8.2099   -0.2400    0.0000 C   0  0  0  0  0  0  0  0  0  0  0  0
    9.5090   -0.9900    0.0000 O   0  0  0  0  0  0  0  0  0  0  0  0
  1  2  1  0
  2  3  1  0
  3  4  1  0
  4  5  1  0
  5  6  1  0
  6  7  2  0
  7  8  1  0
  8  9  1  0
  9 10  1  0
 10 11  1  0
M  END
>  <cdk:Title>  (561) 
cis-4-Decenol

>  <1A2>  (561) 
N

>  <2A6>  (561) 
N

>  <2B6>  (561) 
N

>  <2C8>  (561) 
N

>  <2C9>  (561) 
N

>  <2C19>  (561) 
N

>  <2D6>  (561) 
N

>  <2E1>  (561) 
N

>  <3A4>  (561) 
N

>  <Citation>  (561) 
Nucleic Acids Res. 2018. Jan 4;46(D1):D608-17. PMID:29140435
Nucleic Acids Res. 2018 Jan 4;46(D1):D1074-D1082. PMID:29126136
Nucleic Acids Res., 45:D380-388 (2017).  PMID:27924025
Nucleic Acids Res. 2016 Jan 4;44(D1):D1202-13. PMID:26400175

>  <ROMol>  (561) 
<rdkit.Chem.rdchem.Mol object at 0x7c2905d8d8c0>

>  <Drug_like>  (561) 
True

$$$$
2'_3'-Cyclic CMP
     RDKit          2D

 20 22  0  0  0  0  0  0  0  0999 V2000
    0.6743    2.7254    0.0000 C   0  0  0  0  0  0  0  0  0  0  0  0
   -0.8224    2.5814    0.0000 N   0  0  0  0  0  0  0  0  0  0  0  0
   -1.6244    0.7711    0.0000 C   0  0  0  0  0  0  0  0  0  0  0  0
   -2.5044   -0.4389    0.0000 O   0  0  0  0  0  0  0  0  0  0  0  0
   -1.6244   -1.6489    0.0000 C   0  0  0  0  0  0  0  0  0  0  0  0
   -2.9240   -2.3980    0.0000 C   0  0  0  0  0  0  0  0  0  0  0  0
   -2.9250   -3.8980    0.0000 O   0  0  0  0  0  0  0  0  0  0  0  0
   -0.1944   -1.1889    0.0000 C   0  0  0  0  0  0  0  0  0  0  0  0
   -0.1944    0.3111    0.0000 C   0  0  0  0  0  0  0  0  0  0  0  0
    1.2356    0.7711    0.0000 O   0  0  0  0  0  0  0  0  0  0  0  0
    2.1156   -0.4389    0.0000 P   0  0  0  0  0  0  0  0  0  0  0  0
    1.2356   -1.6489    0.0000 O   0  0  0  0  0  0  0  0  0  0  0  0
    3.2301   -1.4427    0.0000 O   0  0  0  0  0  0  0  0  0  0  0  0
    3.2301    0.5650    0.0000 O   0  0  0  0  0  0  0  0  0  0  0  0
   -1.7144    3.7776    0.0000 C   0  0  0  0  0  0  0  0  0  0  0  0
   -1.1255    5.1572    0.0000 N   0  0  0  0  0  0  0  0  0  0  0  0
    0.3830    5.3288    0.0000 C   0  0  0  0  0  0  0  0  0  0  0  0
    1.2750    4.1326    0.0000 C   0  0  0  0  0  0  0  0  0  0  0  0
    0.9787    6.7054    0.0000 N   0  0  0  0  0  0  0  0  0  0  0  0
   -3.2038    3.6001    0.0000 O   0  0  0  0  0  0  0  0  0  0  0  0
  1  2  1  0
  2  3  1  0
  3  4  1  0
  4  5  1  0
  5  6  1  0
  6  7  1  0
  5  8  1  0
  8  9  1  0
  3  9  1  0
  9 10  1  0
 10 11  1  0
 11 12  1  0
  8 12  1  0
 11 13  2  0
 11 14  1  0
  2 15  1  0
 15 16  1  0
 16 17  2  0
 17 18  1  0
  1 18  2  0
 17 19  1  0
 15 20  2  0
M  END
>  <cdk:Title>  (562) 
2'_3'-Cyclic CMP

>  <1A2>  (562) 
N

>  <2A6>  (562) 
N

>  <2B6>  (562) 
N

>  <2C8>  (562) 
N

>  <2C9>  (562) 
N

>  <2C19>  (562) 
N

>  <2D6>  (562) 
N

>  <2E1>  (562) 
N

>  <3A4>  (562) 
N

>  <Citation>  (562) 
Nucleic Acids Res. 2018. Jan 4;46(D1):D608-17. PMID:29140435
Nucleic Acids Res. 2018 Jan 4;46(D1):D1074-D1082. PMID:29126136
Nucleic Acids Res., 45:D380-388 (2017).  PMID:27924025
Nucleic Acids Res. 2016 Jan 4;44(D1):D1202-13. PMID:26400175

>  <ROMol>  (562) 
<rdkit.Chem.rdchem.Mol object at 0x7c2905d8d930>

>  <Drug_like>  (562) 
True

$$$$
Ethyl 2-furanpropionate
     RDKit          2D

 12 12  0  0  0  0  0  0  0  0999 V2000
   -1.6294   -0.9503    0.0000 C   0  0  0  0  0  0  0  0  0  0  0  0
   -1.3161    0.5166    0.0000 C   0  0  0  0  0  0  0  0  0  0  0  0
    0.1110    0.9786    0.0000 O   0  0  0  0  0  0  0  0  0  0  0  0
    0.4244    2.4455    0.0000 C   0  0  0  0  0  0  0  0  0  0  0  0
    1.8514    2.9076    0.0000 C   0  0  0  0  0  0  0  0  0  0  0  0
    2.1648    4.3745    0.0000 C   0  0  0  0  0  0  0  0  0  0  0  0
    3.5918    4.8366    0.0000 C   0  0  0  0  0  0  0  0  0  0  0  0
    4.0618    6.2566    0.0000 C   0  0  0  0  0  0  0  0  0  0  0  0
    5.5618    6.2566    0.0000 C   0  0  0  0  0  0  0  0  0  0  0  0
    6.0218    4.8366    0.0000 C   0  0  0  0  0  0  0  0  0  0  0  0
    4.8118    3.9566    0.0000 O   0  0  0  0  0  0  0  0  0  0  0  0
   -0.6893    3.4504    0.0000 O   0  0  0  0  0  0  0  0  0  0  0  0
  1  2  1  0
  2  3  1  0
  3  4  1  0
  4  5  1  0
  5  6  1  0
  6  7  1  0
  7  8  2  0
  8  9  1  0
  9 10  2  0
 10 11  1  0
  7 11  1  0
  4 12  2  0
M  END
>  <cdk:Title>  (563) 
Ethyl 2-furanpropionate

>  <1A2>  (563) 
N

>  <2A6>  (563) 
N

>  <2B6>  (563) 
N

>  <2C8>  (563) 
N

>  <2C9>  (563) 
N

>  <2C19>  (563) 
N

>  <2D6>  (563) 
N

>  <2E1>  (563) 
N

>  <3A4>  (563) 
N

>  <Citation>  (563) 
Nucleic Acids Res. 2018. Jan 4;46(D1):D608-17. PMID:29140435
Nucleic Acids Res. 2018 Jan 4;46(D1):D1074-D1082. PMID:29126136
Nucleic Acids Res., 45:D380-388 (2017).  PMID:27924025
Nucleic Acids Res. 2016 Jan 4;44(D1):D1202-13. PMID:26400175

>  <ROMol>  (563) 
<rdkit.Chem.rdchem.Mol object at 0x7c2905d8d9a0>

>  <Drug_like>  (563) 
True

$$$$
Methyl propyl trisulfide
     RDKit          2D

  7  6  0  0  0  0  0  0  0  0999 V2000
    3.2868   -1.4985    0.0000 C   0  0  0  0  0  0  0  0  0  0  0  0
    3.2868   -2.9985    0.0000 C   0  0  0  0  0  0  0  0  0  0  0  0
    4.5858   -3.7485    0.0000 C   0  0  0  0  0  0  0  0  0  0  0  0
    5.8848   -2.9985    0.0000 S   0  0  0  0  0  0  0  0  0  0  0  0
    7.1839   -3.7485    0.0000 S   0  0  0  0  0  0  0  0  0  0  0  0
    8.4829   -2.9985    0.0000 S   0  0  0  0  0  0  0  0  0  0  0  0
    9.7820   -3.7485    0.0000 C   0  0  0  0  0  0  0  0  0  0  0  0
  1  2  1  0
  2  3  1  0
  3  4  1  0
  4  5  1  0
  5  6  1  0
  6  7  1  0
M  END
>  <cdk:Title>  (564) 
Methyl propyl trisulfide

>  <1A2>  (564) 
N

>  <2A6>  (564) 
N

>  <2B6>  (564) 
N

>  <2C8>  (564) 
N

>  <2C9>  (564) 
N

>  <2C19>  (564) 
N

>  <2D6>  (564) 
N

>  <2E1>  (564) 
N

>  <3A4>  (564) 
N

>  <Citation>  (564) 
Nucleic Acids Res. 2018. Jan 4;46(D1):D608-17. PMID:29140435
Nucleic Acids Res. 2018 Jan 4;46(D1):D1074-D1082. PMID:29126136
Nucleic Acids Res., 45:D380-388 (2017).  PMID:27924025
Nucleic Acids Res. 2016 Jan 4;44(D1):D1202-13. PMID:26400175

>  <ROMol>  (564) 
<rdkit.Chem.rdchem.Mol object at 0x7c2905d8da10>

>  <Drug_like>  (564) 
True

$$$$
Leu-pro
     RDKit          2D

 16 16  0  0  0  0  0  0  0  0999 V2000
    1.6863   -2.1230    0.0000 C   0  0  0  0  0  0  0  0  0  0  0  0
    0.9337   -3.4205    0.0000 C   0  0  0  0  0  0  0  0  0  0  0  0
   -0.5663   -3.4176    0.0000 C   0  0  0  0  0  0  0  0  0  0  0  0
   -1.5529   -1.7009    0.0000 C   0  0  0  0  0  0  0  0  0  0  0  0
   -3.0529   -1.6980    0.0000 C   0  0  0  0  0  0  0  0  0  0  0  0
   -1.8105   -0.2232    0.0000 C   0  0  0  0  0  0  0  0  0  0  0  0
    0.5861   -5.3698    0.0000 N   0  0  0  0  0  0  0  0  0  0  0  0
    0.9388   -0.8225    0.0000 O   0  0  0  0  0  0  0  0  0  0  0  0
    4.1463   -2.1278    0.0000 N   0  0  0  0  0  0  0  0  0  0  0  0
    5.0215   -3.3412    0.0000 C   0  0  0  0  0  0  0  0  0  0  0  0
    6.4533   -2.8868    0.0000 C   0  0  0  0  0  0  0  0  0  0  0  0
    6.4592   -1.3868    0.0000 C   0  0  0  0  0  0  0  0  0  0  0  0
    5.0310   -0.9112    0.0000 C   0  0  0  0  0  0  0  0  0  0  0  0
    3.7341   -0.1577    0.0000 C   0  0  0  0  0  0  0  0  0  0  0  0
    2.4330   -0.9041    0.0000 O   0  0  0  0  0  0  0  0  0  0  0  0
    3.7382    1.3423    0.0000 O   0  0  0  0  0  0  0  0  0  0  0  0
  1  2  1  0
  2  3  1  0
  3  4  1  0
  4  5  1  0
  4  6  1  0
  2  7  1  0
  1  8  2  0
  1  9  1  0
  9 10  1  0
 10 11  1  0
 11 12  1  0
 12 13  1  0
  9 13  1  0
 13 14  1  0
 14 15  2  0
 14 16  1  0
M  END
>  <cdk:Title>  (565) 
Leu-pro

>  <1A2>  (565) 
N

>  <2A6>  (565) 
N

>  <2B6>  (565) 
N

>  <2C8>  (565) 
N

>  <2C9>  (565) 
N

>  <2C19>  (565) 
N

>  <2D6>  (565) 
N

>  <2E1>  (565) 
N

>  <3A4>  (565) 
N

>  <Citation>  (565) 
Nucleic Acids Res. 2018. Jan 4;46(D1):D608-17. PMID:29140435
Nucleic Acids Res. 2018 Jan 4;46(D1):D1074-D1082. PMID:29126136
Nucleic Acids Res., 45:D380-388 (2017).  PMID:27924025
Nucleic Acids Res. 2016 Jan 4;44(D1):D1202-13. PMID:26400175

>  <ROMol>  (565) 
<rdkit.Chem.rdchem.Mol object at 0x7c2905d8da80>

>  <Drug_like>  (565) 
True

$$$$
(2R)-2-{[(2R)-2-amino-1-hydroxy-3-(4-hydroxyphenyl)propylidene]amino}-3-(C-hydro
     RDKit          2D

 21 21  0  0  0  0  0  0  0  0999 V2000
    2.5773    0.5516    0.0000 N   0  0  0  0  0  0  0  0  0  0  0  0
    2.5847    2.0516    0.0000 C   0  0  0  0  0  0  0  0  0  0  0  0
    1.2893    2.8080    0.0000 O   0  0  0  0  0  0  0  0  0  0  0  0
    3.8874    2.7952    0.0000 C   0  0  0  0  0  0  0  0  0  0  0  0
    2.9289    3.9490    0.0000 N   0  0  0  0  0  0  0  0  0  0  0  0
    5.1827    2.0388    0.0000 C   0  0  0  0  0  0  0  0  0  0  0  0
    6.4854    2.7824    0.0000 C   0  0  0  0  0  0  0  0  0  0  0  0
    7.7770    2.0197    0.0000 C   0  0  0  0  0  0  0  0  0  0  0  0
    9.0686    2.7318    0.0000 C   0  0  0  0  0  0  0  0  0  0  0  0
    9.1093    4.2756    0.0000 C   0  0  0  0  0  0  0  0  0  0  0  0
   10.4217    5.0020    0.0000 O   0  0  0  0  0  0  0  0  0  0  0  0
    7.8177    5.0384    0.0000 C   0  0  0  0  0  0  0  0  0  0  0  0
    6.4854    4.2573    0.0000 C   0  0  0  0  0  0  0  0  0  0  0  0
    1.2746   -0.1920    0.0000 C   0  0  0  0  0  0  0  0  0  0  0  0
   -0.0208    0.5644    0.0000 C   0  0  0  0  0  0  0  0  0  0  0  0
   -1.3235   -0.1792    0.0000 C   0  0  0  0  0  0  0  0  0  0  0  0
   -2.6188    0.5772    0.0000 N   0  0  0  0  0  0  0  0  0  0  0  0
   -1.3309   -1.6792    0.0000 O   0  0  0  0  0  0  0  0  0  0  0  0
    2.2331   -1.3458    0.0000 C   0  0  0  0  0  0  0  0  0  0  0  0
    1.7131   -2.7528    0.0000 O   0  0  0  0  0  0  0  0  0  0  0  0
    3.7116   -1.0926    0.0000 O   0  0  0  0  0  0  0  0  0  0  0  0
  1  2  1  0
  2  3  2  0
  2  4  1  0
  4  5  1  0
  4  6  1  0
  6  7  1  0
  7  8  2  0
  8  9  1  0
  9 10  2  0
 10 11  1  0
 10 12  1  0
 12 13  2  0
  7 13  1  0
  1 14  1  0
 14 15  1  0
 15 16  1  0
 16 17  1  0
 16 18  2  0
 14 19  1  0
 19 20  1  0
 19 21  2  0
M  END
>  <cdk:Title>  (566) 
(2R)-2-{[(2R)-2-amino-1-hydroxy-3-(4-hydroxyphenyl)propylidene]amino}-3-(C-hydroxycarbonimidoyl)propanoic acid

>  <1A2>  (566) 
N

>  <2A6>  (566) 
N

>  <2B6>  (566) 
N

>  <2C8>  (566) 
N

>  <2C9>  (566) 
N

>  <2C19>  (566) 
N

>  <2D6>  (566) 
N

>  <2E1>  (566) 
N

>  <3A4>  (566) 
N

>  <Citation>  (566) 
Nucleic Acids Res. 2018. Jan 4;46(D1):D608-17. PMID:29140435
Nucleic Acids Res. 2018 Jan 4;46(D1):D1074-D1082. PMID:29126136
Nucleic Acids Res., 45:D380-388 (2017).  PMID:27924025
Nucleic Acids Res. 2016 Jan 4;44(D1):D1202-13. PMID:26400175

>  <ROMol>  (566) 
<rdkit.Chem.rdchem.Mol object at 0x7c2905d8daf0>

>  <Drug_like>  (566) 
True

$$$$
3_5_7-Octatriyn-1-ol
     RDKit          2D

  9  8  0  0  0  0  0  0  0  0999 V2000
    0.7704    1.7772    0.0000 C   0  0  0  0  0  0  0  0  0  0  0  0
    2.2704    1.7772    0.0000 C   0  0  0  0  0  0  0  0  0  0  0  0
    3.7704    1.7772    0.0000 C   0  0  0  0  0  0  0  0  0  0  0  0
    5.2704    1.7772    0.0000 C   0  0  0  0  0  0  0  0  0  0  0  0
    6.7704    1.7772    0.0000 C   0  0  0  0  0  0  0  0  0  0  0  0
    8.2704    1.7772    0.0000 C   0  0  0  0  0  0  0  0  0  0  0  0
    9.7704    1.7772    0.0000 C   0  0  0  0  0  0  0  0  0  0  0  0
   10.5204    0.4781    0.0000 C   0  0  0  0  0  0  0  0  0  0  0  0
   12.0204    0.4781    0.0000 O   0  0  0  0  0  0  0  0  0  0  0  0
  1  2  3  0
  2  3  1  0
  3  4  3  0
  4  5  1  0
  5  6  3  0
  6  7  1  0
  7  8  1  0
  8  9  1  0
M  END
>  <cdk:Title>  (567) 
3_5_7-Octatriyn-1-ol

>  <1A2>  (567) 
N

>  <2A6>  (567) 
N

>  <2B6>  (567) 
N

>  <2C8>  (567) 
N

>  <2C9>  (567) 
N

>  <2C19>  (567) 
N

>  <2D6>  (567) 
N

>  <2E1>  (567) 
N

>  <3A4>  (567) 
N

>  <Citation>  (567) 
Nucleic Acids Res. 2018. Jan 4;46(D1):D608-17. PMID:29140435
Nucleic Acids Res. 2018 Jan 4;46(D1):D1074-D1082. PMID:29126136
Nucleic Acids Res., 45:D380-388 (2017).  PMID:27924025
Nucleic Acids Res. 2016 Jan 4;44(D1):D1202-13. PMID:26400175

>  <ROMol>  (567) 
<rdkit.Chem.rdchem.Mol object at 0x7c2905d8dbd0>

>  <Drug_like>  (567) 
True

$$$$
Aurantiumal
     RDKit          2D

 26 28  0  0  0  0  0  0  0  0999 V2000
   -4.4000   -4.5423    0.0000 C   0  0  0  0  0  0  0  0  0  0  0  0
   -3.1009   -5.2923    0.0000 C   0  0  0  0  0  0  0  0  0  0  0  0
   -1.8019   -4.5423    0.0000 C   0  0  0  0  0  0  0  0  0  0  0  0
   -1.8019   -3.0423    0.0000 C   0  0  0  0  0  0  0  0  0  0  0  0
   -3.1009   -2.2923    0.0000 O   0  0  0  0  0  0  0  0  0  0  0  0
   -3.1009   -0.7923    0.0000 C   0  0  0  0  0  0  0  0  0  0  0  0
   -4.4009   -0.0423    0.0000 C   0  0  0  0  0  0  0  0  0  0  0  0
   -5.7009   -0.7923    0.0000 C   0  0  0  0  0  0  0  0  0  0  0  0
   -7.0009   -0.0423    0.0000 C   0  0  0  0  0  0  0  0  0  0  0  0
   -7.0009    1.4577    0.0000 C   0  0  0  0  0  0  0  0  0  0  0  0
   -8.2998    2.2079    0.0000 O   0  0  0  0  0  0  0  0  0  0  0  0
   -5.7009    2.2077    0.0000 O   0  0  0  0  0  0  0  0  0  0  0  0
   -4.4009    1.4577    0.0000 C   0  0  0  0  0  0  0  0  0  0  0  0
   -3.1009    2.2077    0.0000 C   0  0  0  0  0  0  0  0  0  0  0  0
   -1.8009    1.4577    0.0000 C   0  0  0  0  0  0  0  0  0  0  0  0
   -1.8009   -0.0423    0.0000 C   0  0  0  0  0  0  0  0  0  0  0  0
   -0.3809   -0.5023    0.0000 C   0  0  0  0  0  0  0  0  0  0  0  0
    0.5091    0.7077    0.0000 C   0  0  0  0  0  0  0  0  0  0  0  0
   -0.3809    1.9177    0.0000 O   0  0  0  0  0  0  0  0  0  0  0  0
   -3.1009   -6.7923    0.0000 C   0  0  0  0  0  0  0  0  0  0  0  0
   -5.6470   -8.2623    0.0000 C   0  0  0  0  0  0  0  0  0  0  0  0
   -5.6470  -10.2423    0.0000 C   0  0  0  0  0  0  0  0  0  0  0  0
   -7.3618  -11.2323    0.0000 C   0  0  0  0  0  0  0  0  0  0  0  0
   -5.1340  -11.6518    0.0000 C   0  0  0  0  0  0  0  0  0  0  0  0
   -4.1698   -9.9818    0.0000 C   0  0  0  0  0  0  0  0  0  0  0  0
   -2.8971  -11.4986    0.0000 O   0  0  0  0  0  0  0  0  0  0  0  0
  1  2  1  0
  2  3  2  0
  3  4  1  0
  4  5  1  0
  5  6  1  0
  6  7  2  0
  7  8  1  0
  8  9  2  0
  9 10  1  0
 10 11  2  0
 10 12  1  0
 12 13  1  0
  7 13  1  0
 13 14  2  0
 14 15  1  0
 15 16  2  0
  6 16  1  0
 16 17  1  0
 17 18  2  0
 18 19  1  0
 15 19  1  0
  2 20  1  0
 20 21  1  0
 21 22  1  0
 22 23  1  0
 22 24  1  0
 22 25  1  0
 25 26  2  0
M  END
>  <cdk:Title>  (568) 
Aurantiumal

>  <1A2>  (568) 
N

>  <2A6>  (568) 
N

>  <2B6>  (568) 
N

>  <2C8>  (568) 
N

>  <2C9>  (568) 
N

>  <2C19>  (568) 
N

>  <2D6>  (568) 
N

>  <2E1>  (568) 
N

>  <3A4>  (568) 
N

>  <Citation>  (568) 
Nucleic Acids Res. 2018. Jan 4;46(D1):D608-17. PMID:29140435
Nucleic Acids Res. 2018 Jan 4;46(D1):D1074-D1082. PMID:29126136
Nucleic Acids Res., 45:D380-388 (2017).  PMID:27924025
Nucleic Acids Res. 2016 Jan 4;44(D1):D1202-13. PMID:26400175

>  <ROMol>  (568) 
<rdkit.Chem.rdchem.Mol object at 0x7c2905d8dc40>

>  <Drug_like>  (568) 
True

$$$$
(+)-trans-Carveol glucoside
     RDKit          2D

 22 23  0  0  0  0  0  0  0  0999 V2000
    0.7185   -6.9300    0.0000 C   0  0  0  0  0  0  0  0  0  0  0  0
   -0.7586   -6.6687    0.0000 C   0  0  0  0  0  0  0  0  0  0  0  0
   -1.7234   -7.8173    0.0000 C   0  0  0  0  0  0  0  0  0  0  0  0
   -1.5987   -4.3567    0.0000 C   0  0  0  0  0  0  0  0  0  0  0  0
   -2.5633   -3.2068    0.0000 C   0  0  0  0  0  0  0  0  0  0  0  0
   -2.0497   -1.7975    0.0000 C   0  0  0  0  0  0  0  0  0  0  0  0
   -0.5715   -1.5380    0.0000 C   0  0  0  0  0  0  0  0  0  0  0  0
   -0.0578   -0.1287    0.0000 C   0  0  0  0  0  0  0  0  0  0  0  0
    0.3931   -2.6878    0.0000 C   0  0  0  0  0  0  0  0  0  0  0  0
    1.3575   -1.5390    0.0000 O   0  0  0  0  0  0  0  0  0  0  0  0
    3.7801   -1.9667    0.0000 C   0  0  0  0  0  0  0  0  0  0  0  0
    5.0982   -2.7200    0.0000 O   0  0  0  0  0  0  0  0  0  0  0  0
    6.4001   -1.9732    0.0000 C   0  0  0  0  0  0  0  0  0  0  0  0
    6.4038   -0.4832    0.0000 C   0  0  0  0  0  0  0  0  0  0  0  0
    5.1057    0.2800    0.0000 C   0  0  0  0  0  0  0  0  0  0  0  0
    3.7838   -0.4767    0.0000 C   0  0  0  0  0  0  0  0  0  0  0  0
    3.1128    1.3862    0.0000 O   0  0  0  0  0  0  0  0  0  0  0  0
    6.0774    1.4228    0.0000 O   0  0  0  0  0  0  0  0  0  0  0  0
    7.8799   -0.7501    0.0000 O   0  0  0  0  0  0  0  0  0  0  0  0
    6.9093   -3.3842    0.0000 C   0  0  0  0  0  0  0  0  0  0  0  0
    8.3858   -3.6487    0.0000 O   0  0  0  0  0  0  0  0  0  0  0  0
   -0.1205   -4.0971    0.0000 C   0  0  0  0  0  0  0  0  0  0  0  0
  1  2  1  0
  2  3  2  0
  2  4  1  0
  4  5  1  0
  5  6  1  0
  6  7  2  0
  7  8  1  0
  7  9  1  0
  9 10  1  0
 10 11  1  0
 11 12  1  0
 12 13  1  0
 13 14  1  0
 14 15  1  0
 15 16  1  0
 11 16  1  0
 16 17  1  0
 15 18  1  0
 14 19  1  0
 13 20  1  0
 20 21  1  0
  9 22  1  0
  4 22  1  0
M  END
>  <cdk:Title>  (569) 
(+)-trans-Carveol glucoside

>  <1A2>  (569) 
N

>  <2A6>  (569) 
N

>  <2B6>  (569) 
N

>  <2C8>  (569) 
N

>  <2C9>  (569) 
N

>  <2C19>  (569) 
N

>  <2D6>  (569) 
N

>  <2E1>  (569) 
N

>  <3A4>  (569) 
N

>  <Citation>  (569) 
Nucleic Acids Res. 2018. Jan 4;46(D1):D608-17. PMID:29140435
Nucleic Acids Res. 2018 Jan 4;46(D1):D1074-D1082. PMID:29126136
Nucleic Acids Res., 45:D380-388 (2017).  PMID:27924025
Nucleic Acids Res. 2016 Jan 4;44(D1):D1202-13. PMID:26400175

>  <ROMol>  (569) 
<rdkit.Chem.rdchem.Mol object at 0x7c2905d8dd20>

>  <Drug_like>  (569) 
True

$$$$
7b_12a-Dihydroxycholanoic acid
     RDKit          2D

 28 31  0  0  0  0  0  0  0  0999 V2000
   -5.3947   -6.1184    0.0000 C   0  0  0  0  0  0  0  0  0  0  0  0
   -5.3947   -7.6184    0.0000 C   0  0  0  0  0  0  0  0  0  0  0  0
   -4.0947   -8.3684    0.0000 C   0  0  0  0  0  0  0  0  0  0  0  0
   -2.7947   -7.6184    0.0000 C   0  0  0  0  0  0  0  0  0  0  0  0
   -2.7947   -6.1184    0.0000 C   0  0  0  0  0  0  0  0  0  0  0  0
   -4.0947   -5.3684    0.0000 C   0  0  0  0  0  0  0  0  0  0  0  0
   -2.4509   -4.1685    0.0000 C   0  0  0  0  0  0  0  0  0  0  0  0
   -1.4947   -5.3684    0.0000 C   0  0  0  0  0  0  0  0  0  0  0  0
   -0.1947   -6.1184    0.0000 C   0  0  0  0  0  0  0  0  0  0  0  0
   -0.1947   -7.6184    0.0000 C   0  0  0  0  0  0  0  0  0  0  0  0
   -1.4947   -8.3684    0.0000 C   0  0  0  0  0  0  0  0  0  0  0  0
    0.3180   -9.0280    0.0000 O   0  0  0  0  0  0  0  0  0  0  0  0
    1.1053   -5.3684    0.0000 C   0  0  0  0  0  0  0  0  0  0  0  0
    1.1053   -3.8684    0.0000 C   0  0  0  0  0  0  0  0  0  0  0  0
   -0.1947   -3.1184    0.0000 C   0  0  0  0  0  0  0  0  0  0  0  0
   -1.4947   -3.8684    0.0000 C   0  0  0  0  0  0  0  0  0  0  0  0
    0.7694   -1.9692    0.0000 O   0  0  0  0  0  0  0  0  0  0  0  0
    1.4165   -0.9449    0.0000 C   0  0  0  0  0  0  0  0  0  0  0  0
    2.5353   -3.4084    0.0000 C   0  0  0  0  0  0  0  0  0  0  0  0
    3.4153   -4.6184    0.0000 C   0  0  0  0  0  0  0  0  0  0  0  0
    2.5353   -5.8284    0.0000 C   0  0  0  0  0  0  0  0  0  0  0  0
    4.2507   -2.4195    0.0000 C   0  0  0  0  0  0  0  0  0  0  0  0
    6.3803   -3.6509    0.0000 C   0  0  0  0  0  0  0  0  0  0  0  0
    8.5115   -2.4223    0.0000 C   0  0  0  0  0  0  0  0  0  0  0  0
    9.8101   -3.1732    0.0000 C   0  0  0  0  0  0  0  0  0  0  0  0
   11.1096   -2.4240    0.0000 O   0  0  0  0  0  0  0  0  0  0  0  0
    9.8091   -4.6732    0.0000 O   0  0  0  0  0  0  0  0  0  0  0  0
    6.1420   -0.1686    0.0000 C   0  0  0  0  0  0  0  0  0  0  0  0
  1  2  1  0
  2  3  1  0
  3  4  1  0
  4  5  1  0
  5  6  1  0
  1  6  1  0
  5  7  1  1
  5  8  1  0
  8  9  1  0
  9 10  1  0
 10 11  1  0
  4 11  1  0
 10 12  1  0
  9 13  1  0
 13 14  1  0
 14 15  1  0
 15 16  1  0
  8 16  1  0
 15 17  1  0
 14 18  1  1
 14 19  1  0
 19 20  1  0
 20 21  1  0
 13 21  1  0
 19 22  1  0
 22 23  1  0
 23 24  1  0
 24 25  1  0
 25 26  1  0
 25 27  2  0
 22 28  1  0
M  END
>  <cdk:Title>  (570) 
7b_12a-Dihydroxycholanoic acid

>  <1A2>  (570) 
N

>  <2A6>  (570) 
N

>  <2B6>  (570) 
N

>  <2C8>  (570) 
N

>  <2C9>  (570) 
N

>  <2C19>  (570) 
N

>  <2D6>  (570) 
N

>  <2E1>  (570) 
N

>  <3A4>  (570) 
N

>  <Citation>  (570) 
Nucleic Acids Res. 2018. Jan 4;46(D1):D608-17. PMID:29140435
Nucleic Acids Res. 2018 Jan 4;46(D1):D1074-D1082. PMID:29126136
Nucleic Acids Res., 45:D380-388 (2017).  PMID:27924025
Nucleic Acids Res. 2016 Jan 4;44(D1):D1202-13. PMID:26400175

>  <ROMol>  (570) 
<rdkit.Chem.rdchem.Mol object at 0x7c2905d8dd90>

>  <Drug_like>  (570) 
True

$$$$
Norfuraneol
     RDKit          2D

  8  8  0  0  0  0  0  0  0  0999 V2000
   -1.4123   -0.3046    0.0000 C   0  0  0  0  0  0  0  0  0  0  0  0
    0.0138    0.1607    0.0000 C   0  0  0  0  0  0  0  0  0  0  0  0
    0.4738    1.5907    0.0000 C   0  0  0  0  0  0  0  0  0  0  0  0
    1.9738    1.5907    0.0000 C   0  0  0  0  0  0  0  0  0  0  0  0
    2.4338    0.1607    0.0000 C   0  0  0  0  0  0  0  0  0  0  0  0
    1.2238   -0.7193    0.0000 O   0  0  0  0  0  0  0  0  0  0  0  0
    2.8572    2.8029    0.0000 O   0  0  0  0  0  0  0  0  0  0  0  0
   -0.4097    2.8029    0.0000 O   0  0  0  0  0  0  0  0  0  0  0  0
  1  2  1  0
  2  3  2  0
  3  4  1  0
  4  5  1  0
  5  6  1  0
  2  6  1  0
  4  7  2  0
  3  8  1  0
M  END
>  <cdk:Title>  (571) 
Norfuraneol

>  <1A2>  (571) 
N

>  <2A6>  (571) 
N

>  <2B6>  (571) 
N

>  <2C8>  (571) 
N

>  <2C9>  (571) 
N

>  <2C19>  (571) 
N

>  <2D6>  (571) 
N

>  <2E1>  (571) 
N

>  <3A4>  (571) 
N

>  <Citation>  (571) 
Nucleic Acids Res. 2018. Jan 4;46(D1):D608-17. PMID:29140435
Nucleic Acids Res. 2018 Jan 4;46(D1):D1074-D1082. PMID:29126136
Nucleic Acids Res., 45:D380-388 (2017).  PMID:27924025
Nucleic Acids Res. 2016 Jan 4;44(D1):D1202-13. PMID:26400175

>  <ROMol>  (571) 
<rdkit.Chem.rdchem.Mol object at 0x7c2905d8de00>

>  <Drug_like>  (571) 
True

$$$$
Beta-D-Galactopyranuronic acid
     RDKit          2D

 13 13  0  0  0  0  0  0  0  0999 V2000
    2.7878    0.7629    0.0000 O   0  0  0  0  0  0  0  0  0  0  0  0
    1.3100    1.0200    0.0000 C   0  0  0  0  0  0  0  0  0  0  0  0
   -0.0100    1.7700    0.0000 O   0  0  0  0  0  0  0  0  0  0  0  0
   -1.3100    1.0200    0.0000 C   0  0  0  0  0  0  0  0  0  0  0  0
   -1.3100   -0.4700    0.0000 C   0  0  0  0  0  0  0  0  0  0  0  0
   -2.7867   -0.2069    0.0000 O   0  0  0  0  0  0  0  0  0  0  0  0
   -0.0100   -1.2300    0.0000 C   0  0  0  0  0  0  0  0  0  0  0  0
   -0.9788   -2.3752    0.0000 O   0  0  0  0  0  0  0  0  0  0  0  0
    1.3100   -0.4700    0.0000 C   0  0  0  0  0  0  0  0  0  0  0  0
    1.8219   -1.8799    0.0000 O   0  0  0  0  0  0  0  0  0  0  0  0
   -1.8227    2.4296    0.0000 C   0  0  0  0  0  0  0  0  0  0  0  0
   -3.2999    2.6904    0.0000 O   0  0  0  0  0  0  0  0  0  0  0  0
   -0.8583    3.5785    0.0000 O   0  0  0  0  0  0  0  0  0  0  0  0
  1  2  1  0
  2  3  1  0
  3  4  1  0
  4  5  1  0
  5  6  1  0
  5  7  1  0
  7  8  1  0
  7  9  1  0
  2  9  1  0
  9 10  1  0
  4 11  1  0
 11 12  1  0
 11 13  2  0
M  END
>  <cdk:Title>  (572) 
Beta-D-Galactopyranuronic acid

>  <1A2>  (572) 
N

>  <2A6>  (572) 
N

>  <2B6>  (572) 
N

>  <2C8>  (572) 
N

>  <2C9>  (572) 
N

>  <2C19>  (572) 
N

>  <2D6>  (572) 
N

>  <2E1>  (572) 
N

>  <3A4>  (572) 
N

>  <Citation>  (572) 
Nucleic Acids Res. 2018. Jan 4;46(D1):D608-17. PMID:29140435
Nucleic Acids Res. 2018 Jan 4;46(D1):D1074-D1082. PMID:29126136
Nucleic Acids Res., 45:D380-388 (2017).  PMID:27924025
Nucleic Acids Res. 2016 Jan 4;44(D1):D1202-13. PMID:26400175

>  <ROMol>  (572) 
<rdkit.Chem.rdchem.Mol object at 0x7c2905d8dee0>

>  <Drug_like>  (572) 
True

$$$$
Trihydroxycoprostanoic acid
     RDKit          2D

 33 36  0  0  0  0  0  0  0  0999 V2000
   -8.3547   -3.2650    0.0000 C   0  0  0  0  0  0  0  0  0  0  0  0
   -8.3547   -4.7650    0.0000 C   0  0  0  0  0  0  0  0  0  0  0  0
   -7.0547   -5.5150    0.0000 C   0  0  0  0  0  0  0  0  0  0  0  0
   -5.7547   -4.7650    0.0000 C   0  0  0  0  0  0  0  0  0  0  0  0
   -5.7547   -3.2650    0.0000 C   0  0  0  0  0  0  0  0  0  0  0  0
   -7.0547   -2.5150    0.0000 C   0  0  0  0  0  0  0  0  0  0  0  0
   -5.7547   -0.3250    0.0000 C   0  0  0  0  0  0  0  0  0  0  0  0
   -4.4547   -2.5150    0.0000 C   0  0  0  0  0  0  0  0  0  0  0  0
   -3.1547   -3.2650    0.0000 C   0  0  0  0  0  0  0  0  0  0  0  0
   -3.1547   -4.7650    0.0000 C   0  0  0  0  0  0  0  0  0  0  0  0
   -4.4547   -5.5150    0.0000 C   0  0  0  0  0  0  0  0  0  0  0  0
   -2.6419   -6.1746    0.0000 O   0  0  0  0  0  0  0  0  0  0  0  0
   -1.8547   -2.5150    0.0000 C   0  0  0  0  0  0  0  0  0  0  0  0
   -1.8547   -1.0150    0.0000 C   0  0  0  0  0  0  0  0  0  0  0  0
   -3.1547   -0.2650    0.0000 C   0  0  0  0  0  0  0  0  0  0  0  0
   -4.4547   -1.0150    0.0000 C   0  0  0  0  0  0  0  0  0  0  0  0
   -2.1906    0.8842    0.0000 O   0  0  0  0  0  0  0  0  0  0  0  0
   -1.5435    1.9085    0.0000 C   0  0  0  0  0  0  0  0  0  0  0  0
   -0.4247   -0.5550    0.0000 C   0  0  0  0  0  0  0  0  0  0  0  0
    0.4553   -1.7650    0.0000 C   0  0  0  0  0  0  0  0  0  0  0  0
   -0.4247   -2.9750    0.0000 C   0  0  0  0  0  0  0  0  0  0  0  0
    1.2907    0.4339    0.0000 C   0  0  0  0  0  0  0  0  0  0  0  0
    3.4203   -0.7975    0.0000 C   0  0  0  0  0  0  0  0  0  0  0  0
    5.5516    0.4311    0.0000 C   0  0  0  0  0  0  0  0  0  0  0  0
    8.0967   -1.0406    0.0000 C   0  0  0  0  0  0  0  0  0  0  0  0
    9.8121   -0.0517    0.0000 C   0  0  0  0  0  0  0  0  0  0  0  0
   12.3572   -1.5234    0.0000 C   0  0  0  0  0  0  0  0  0  0  0  0
   10.7770    1.0967    0.0000 C   0  0  0  0  0  0  0  0  0  0  0  0
    2.2556    1.5823    0.0000 C   0  0  0  0  0  0  0  0  0  0  0  0
   -5.7547   -7.7050    0.0000 C   0  0  0  0  0  0  0  0  0  0  0  0
   -7.0537   -8.4550    0.0000 O   0  0  0  0  0  0  0  0  0  0  0  0
   -4.4556   -8.4550    0.0000 O   0  0  0  0  0  0  0  0  0  0  0  0
   -9.8319   -4.5047    0.0000 O   0  0  0  0  0  0  0  0  0  0  0  0
  1  2  1  0
  2  3  1  0
  3  4  1  0
  4  5  1  0
  5  6  1  0
  1  6  1  0
  5  7  1  1
  5  8  1  0
  8  9  1  0
  9 10  1  0
 10 11  1  0
  4 11  1  0
 10 12  1  0
  9 13  1  0
 13 14  1  0
 14 15  1  0
 15 16  1  0
  8 16  1  0
 15 17  1  0
 14 18  1  1
 14 19  1  0
 19 20  1  0
 20 21  1  0
 13 21  1  0
 19 22  1  0
 22 23  1  0
 23 24  1  0
 24 25  1  0
 25 26  1  0
 26 27  1  0
 26 28  1  0
 22 29  1  0
  4 30  1  1
 30 31  1  0
 30 32  2  0
  2 33  1  0
M  END
>  <cdk:Title>  (573) 
Trihydroxycoprostanoic acid

>  <1A2>  (573) 
N

>  <2A6>  (573) 
N

>  <2B6>  (573) 
N

>  <2C8>  (573) 
N

>  <2C9>  (573) 
N

>  <2C19>  (573) 
N

>  <2D6>  (573) 
N

>  <2E1>  (573) 
N

>  <3A4>  (573) 
N

>  <Citation>  (573) 
Nucleic Acids Res. 2018. Jan 4;46(D1):D608-17. PMID:29140435
Nucleic Acids Res. 2018 Jan 4;46(D1):D1074-D1082. PMID:29126136
Nucleic Acids Res., 45:D380-388 (2017).  PMID:27924025
Nucleic Acids Res. 2016 Jan 4;44(D1):D1202-13. PMID:26400175

>  <ROMol>  (573) 
<rdkit.Chem.rdchem.Mol object at 0x7c2905d8df50>

>  <Drug_like>  (573) 
True

$$$$
Biotin amide
     RDKit          2D

 16 17  0  0  0  0  0  0  0  0999 V2000
   -0.1944    0.2553    0.0000 C   0  0  0  0  0  0  0  0  0  0  0  0
   -1.6944    0.2553    0.0000 C   0  0  0  0  0  0  0  0  0  0  0  0
   -2.1444    1.6753    0.0000 N   0  0  0  0  0  0  0  0  0  0  0  0
   -0.9444    2.5753    0.0000 C   0  0  0  0  0  0  0  0  0  0  0  0
    0.2556    1.6753    0.0000 N   0  0  0  0  0  0  0  0  0  0  0  0
   -0.9444    4.0753    0.0000 O   0  0  0  0  0  0  0  0  0  0  0  0
   -2.2244   -1.1747    0.0000 C   0  0  0  0  0  0  0  0  0  0  0  0
   -1.0244   -2.0747    0.0000 S   0  0  0  0  0  0  0  0  0  0  0  0
    0.2556   -1.1747    0.0000 C   0  0  0  0  0  0  0  0  0  0  0  0
    0.9881   -2.4837    0.0000 C   0  0  0  0  0  0  0  0  0  0  0  0
    2.9680   -2.5103    0.0000 C   0  0  0  0  0  0  0  0  0  0  0  0
    3.9348   -4.2381    0.0000 C   0  0  0  0  0  0  0  0  0  0  0  0
    5.4347   -4.2583    0.0000 C   0  0  0  0  0  0  0  0  0  0  0  0
    6.1672   -5.5673    0.0000 C   0  0  0  0  0  0  0  0  0  0  0  0
    7.6671   -5.5874    0.0000 N   0  0  0  0  0  0  0  0  0  0  0  0
    5.3998   -6.8561    0.0000 O   0  0  0  0  0  0  0  0  0  0  0  0
  1  2  1  0
  2  3  1  0
  3  4  1  0
  4  5  1  0
  1  5  1  0
  4  6  2  0
  2  7  1  0
  7  8  1  0
  8  9  1  0
  1  9  1  0
  9 10  1  0
 10 11  1  0
 11 12  1  0
 12 13  1  0
 13 14  1  0
 14 15  1  0
 14 16  2  0
M  END
>  <cdk:Title>  (574) 
Biotin amide

>  <1A2>  (574) 
N

>  <2A6>  (574) 
N

>  <2B6>  (574) 
N

>  <2C8>  (574) 
N

>  <2C9>  (574) 
N

>  <2C19>  (574) 
N

>  <2D6>  (574) 
N

>  <2E1>  (574) 
N

>  <3A4>  (574) 
N

>  <Citation>  (574) 
Nucleic Acids Res. 2018. Jan 4;46(D1):D608-17. PMID:29140435
Nucleic Acids Res. 2018 Jan 4;46(D1):D1074-D1082. PMID:29126136
Nucleic Acids Res., 45:D380-388 (2017).  PMID:27924025
Nucleic Acids Res. 2016 Jan 4;44(D1):D1202-13. PMID:26400175

>  <ROMol>  (574) 
<rdkit.Chem.rdchem.Mol object at 0x7c2905d8dfc0>

>  <Drug_like>  (574) 
True

$$$$
Tetradec-2-enal
     RDKit          2D

 15 14  0  0  0  0  0  0  0  0999 V2000
    1.3524    3.9485    0.0000 C   0  0  0  0  0  0  0  0  0  0  0  0
    2.8524    3.9485    0.0000 C   0  0  0  0  0  0  0  0  0  0  0  0
    3.6024    2.6495    0.0000 C   0  0  0  0  0  0  0  0  0  0  0  0
    6.0624    2.6495    0.0000 C   0  0  0  0  0  0  0  0  0  0  0  0
    7.0524    0.9348    0.0000 C   0  0  0  0  0  0  0  0  0  0  0  0
    8.5524    0.9348    0.0000 C   0  0  0  0  0  0  0  0  0  0  0  0
    9.7824   -1.1957    0.0000 C   0  0  0  0  0  0  0  0  0  0  0  0
   11.7624   -1.1957    0.0000 C   0  0  0  0  0  0  0  0  0  0  0  0
   12.7524   -2.9104    0.0000 C   0  0  0  0  0  0  0  0  0  0  0  0
   14.7324   -2.9104    0.0000 C   0  0  0  0  0  0  0  0  0  0  0  0
   15.4824   -4.2094    0.0000 C   0  0  0  0  0  0  0  0  0  0  0  0
   16.9824   -4.2094    0.0000 C   0  0  0  0  0  0  0  0  0  0  0  0
   17.7324   -5.5085    0.0000 C   0  0  0  0  0  0  0  0  0  0  0  0
   19.2324   -5.5085    0.0000 C   0  0  0  0  0  0  0  0  0  0  0  0
   19.9824   -6.8075    0.0000 O   0  0  0  0  0  0  0  0  0  0  0  0
  1  2  1  0
  2  3  1  0
  3  4  1  0
  4  5  1  0
  5  6  1  0
  6  7  1  0
  7  8  1  0
  8  9  1  0
  9 10  1  0
 10 11  1  0
 11 12  1  0
 12 13  2  0
 13 14  1  0
 14 15  2  0
M  END
>  <cdk:Title>  (575) 
Tetradec-2-enal

>  <1A2>  (575) 
N

>  <2A6>  (575) 
N

>  <2B6>  (575) 
N

>  <2C8>  (575) 
N

>  <2C9>  (575) 
N

>  <2C19>  (575) 
N

>  <2D6>  (575) 
N

>  <2E1>  (575) 
N

>  <3A4>  (575) 
N

>  <Citation>  (575) 
Nucleic Acids Res. 2018. Jan 4;46(D1):D608-17. PMID:29140435
Nucleic Acids Res. 2018 Jan 4;46(D1):D1074-D1082. PMID:29126136
Nucleic Acids Res., 45:D380-388 (2017).  PMID:27924025
Nucleic Acids Res. 2016 Jan 4;44(D1):D1202-13. PMID:26400175

>  <ROMol>  (575) 
<rdkit.Chem.rdchem.Mol object at 0x7c2905d8e030>

>  <Drug_like>  (575) 
True

$$$$
5_6-Dimethylbenzimidazole
     RDKit          2D

 11 12  0  0  0  0  0  0  0  0999 V2000
    0.2900   -0.7500    0.0000 C   0  0  0  0  0  0  0  0  0  0  0  0
   -1.0100   -1.5000    0.0000 C   0  0  0  0  0  0  0  0  0  0  0  0
   -2.3100   -0.7500    0.0000 C   0  0  0  0  0  0  0  0  0  0  0  0
   -2.3100    0.7500    0.0000 C   0  0  0  0  0  0  0  0  0  0  0  0
   -1.0100    1.5000    0.0000 C   0  0  0  0  0  0  0  0  0  0  0  0
    0.2900    0.7500    0.0000 C   0  0  0  0  0  0  0  0  0  0  0  0
    1.7200    1.2100    0.0000 N   0  0  0  0  0  0  0  0  0  0  0  0
    2.6000    0.0000    0.0000 C   0  0  0  0  0  0  0  0  0  0  0  0
    1.7200   -1.2100    0.0000 N   0  0  0  0  0  0  0  0  0  0  0  0
   -3.6089    1.5002    0.0000 C   0  0  0  0  0  0  0  0  0  0  0  0
   -3.6089   -1.5002    0.0000 C   0  0  0  0  0  0  0  0  0  0  0  0
  1  2  2  0
  2  3  1  0
  3  4  2  0
  4  5  1  0
  5  6  2  0
  1  6  1  0
  6  7  1  0
  7  8  2  0
  8  9  1  0
  1  9  1  0
  4 10  1  0
  3 11  1  0
M  END
>  <cdk:Title>  (576) 
5_6-Dimethylbenzimidazole

>  <1A2>  (576) 
N

>  <2A6>  (576) 
N

>  <2B6>  (576) 
N

>  <2C8>  (576) 
N

>  <2C9>  (576) 
N

>  <2C19>  (576) 
N

>  <2D6>  (576) 
N

>  <2E1>  (576) 
N

>  <3A4>  (576) 
N

>  <Citation>  (576) 
Nucleic Acids Res. 2018. Jan 4;46(D1):D608-17. PMID:29140435
Nucleic Acids Res. 2018 Jan 4;46(D1):D1074-D1082. PMID:29126136
Nucleic Acids Res., 45:D380-388 (2017).  PMID:27924025
Nucleic Acids Res. 2016 Jan 4;44(D1):D1202-13. PMID:26400175

>  <ROMol>  (576) 
<rdkit.Chem.rdchem.Mol object at 0x7c2905d8e0a0>

>  <Drug_like>  (576) 
True

$$$$
cis-3-Hexenyl hexanoate
     RDKit          2D

 14 13  0  0  0  0  0  0  0  0999 V2000
   14.2852   -2.0181    0.0000 C   0  0  0  0  0  0  0  0  0  0  0  0
   12.7852   -2.0181    0.0000 C   0  0  0  0  0  0  0  0  0  0  0  0
   12.0352   -3.3172    0.0000 C   0  0  0  0  0  0  0  0  0  0  0  0
   12.7852   -4.6162    0.0000 C   0  0  0  0  0  0  0  0  0  0  0  0
   14.2852   -4.6162    0.0000 C   0  0  0  0  0  0  0  0  0  0  0  0
   15.0352   -5.9152    0.0000 C   0  0  0  0  0  0  0  0  0  0  0  0
   16.5352   -5.9152    0.0000 O   0  0  0  0  0  0  0  0  0  0  0  0
   17.2852   -7.2143    0.0000 C   0  0  0  0  0  0  0  0  0  0  0  0
   18.7852   -7.2143    0.0000 C   0  0  0  0  0  0  0  0  0  0  0  0
   19.5352   -8.5133    0.0000 C   0  0  0  0  0  0  0  0  0  0  0  0
   21.9952   -8.5133    0.0000 C   0  0  0  0  0  0  0  0  0  0  0  0
   22.7452   -9.8124    0.0000 C   0  0  0  0  0  0  0  0  0  0  0  0
   24.2452   -9.8124    0.0000 C   0  0  0  0  0  0  0  0  0  0  0  0
   16.5352   -8.5133    0.0000 O   0  0  0  0  0  0  0  0  0  0  0  0
  1  2  1  0
  2  3  1  0
  3  4  2  0
  4  5  1  0
  5  6  1  0
  6  7  1  0
  7  8  1  0
  8  9  1  0
  9 10  1  0
 10 11  1  0
 11 12  1  0
 12 13  1  0
  8 14  2  0
M  END
>  <cdk:Title>  (577) 
cis-3-Hexenyl hexanoate

>  <1A2>  (577) 
N

>  <2A6>  (577) 
N

>  <2B6>  (577) 
N

>  <2C8>  (577) 
N

>  <2C9>  (577) 
N

>  <2C19>  (577) 
N

>  <2D6>  (577) 
N

>  <2E1>  (577) 
N

>  <3A4>  (577) 
N

>  <Citation>  (577) 
Nucleic Acids Res. 2018. Jan 4;46(D1):D608-17. PMID:29140435
Nucleic Acids Res. 2018 Jan 4;46(D1):D1074-D1082. PMID:29126136
Nucleic Acids Res., 45:D380-388 (2017).  PMID:27924025
Nucleic Acids Res. 2016 Jan 4;44(D1):D1202-13. PMID:26400175

>  <ROMol>  (577) 
<rdkit.Chem.rdchem.Mol object at 0x7c2905d8e110>

>  <Drug_like>  (577) 
True

$$$$
cis-Vitispirane
     RDKit          2D

 14 15  0  0  0  0  0  0  0  0999 V2000
   -5.3329    0.0977    0.0000 C   0  0  0  0  0  0  0  0  0  0  0  0
   -2.7867   -1.3723    0.0000 C   0  0  0  0  0  0  0  0  0  0  0  0
   -2.7867   -2.8723    0.0000 C   0  0  0  0  0  0  0  0  0  0  0  0
   -1.4877   -3.6223    0.0000 C   0  0  0  0  0  0  0  0  0  0  0  0
   -0.1887   -2.8723    0.0000 C   0  0  0  0  0  0  0  0  0  0  0  0
   -0.1887   -1.3723    0.0000 C   0  0  0  0  0  0  0  0  0  0  0  0
    2.7067   -1.8829    0.0000 C   0  0  0  0  0  0  0  0  0  0  0  0
    0.3244    0.0372    0.0000 C   0  0  0  0  0  0  0  0  0  0  0  0
   -1.4877   -0.6223    0.0000 C   0  0  0  0  0  0  0  0  0  0  0  0
   -2.7012    0.2593    0.0000 C   0  0  0  0  0  0  0  0  0  0  0  0
   -2.2377    1.6859    0.0000 C   0  0  0  0  0  0  0  0  0  0  0  0
   -0.7377    1.6859    0.0000 C   0  0  0  0  0  0  0  0  0  0  0  0
    1.1990    2.0976    0.0000 C   0  0  0  0  0  0  0  0  0  0  0  0
   -0.2742    0.2593    0.0000 O   0  0  0  0  0  0  0  0  0  0  0  0
  1  2  2  0
  2  3  1  0
  3  4  2  0
  4  5  1  0
  5  6  1  0
  6  7  1  0
  6  8  1  0
  6  9  1  0
  2  9  1  0
  9 10  1  1
 10 11  1  0
 11 12  1  0
 12 13  1  0
 12 14  1  0
  9 14  1  0
M  END
>  <cdk:Title>  (578) 
cis-Vitispirane

>  <1A2>  (578) 
N

>  <2A6>  (578) 
N

>  <2B6>  (578) 
N

>  <2C8>  (578) 
N

>  <2C9>  (578) 
N

>  <2C19>  (578) 
N

>  <2D6>  (578) 
N

>  <2E1>  (578) 
N

>  <3A4>  (578) 
N

>  <Citation>  (578) 
Nucleic Acids Res. 2018. Jan 4;46(D1):D608-17. PMID:29140435
Nucleic Acids Res. 2018 Jan 4;46(D1):D1074-D1082. PMID:29126136
Nucleic Acids Res., 45:D380-388 (2017).  PMID:27924025
Nucleic Acids Res. 2016 Jan 4;44(D1):D1202-13. PMID:26400175

>  <ROMol>  (578) 
<rdkit.Chem.rdchem.Mol object at 0x7c2905d8e180>

>  <Drug_like>  (578) 
True

$$$$
Neotigogenin
     RDKit          2D

 30 35  0  0  0  0  0  0  0  0999 V2000
   -1.3894   -1.6802    0.0000 C   0  0  0  0  0  0  0  0  0  0  0  0
   -2.7598   -2.2903    0.0000 C   0  0  0  0  0  0  0  0  0  0  0  0
   -3.7635   -1.1756    0.0000 C   0  0  0  0  0  0  0  0  0  0  0  0
   -3.0135    0.1235    0.0000 C   0  0  0  0  0  0  0  0  0  0  0  0
   -3.7635    1.4225    0.0000 C   0  0  0  0  0  0  0  0  0  0  0  0
   -5.2635    1.4225    0.0000 C   0  0  0  0  0  0  0  0  0  0  0  0
   -6.0135    0.1235    0.0000 C   0  0  0  0  0  0  0  0  0  0  0  0
   -5.2635   -1.1756    0.0000 C   0  0  0  0  0  0  0  0  0  0  0  0
   -6.0135   -2.4746    0.0000 C   0  0  0  0  0  0  0  0  0  0  0  0
   -7.5135   -2.4746    0.0000 C   0  0  0  0  0  0  0  0  0  0  0  0
   -8.2635   -1.1756    0.0000 C   0  0  0  0  0  0  0  0  0  0  0  0
   -9.7635   -1.1756    0.0000 C   0  0  0  0  0  0  0  0  0  0  0  0
  -10.5135    0.1235    0.0000 C   0  0  0  0  0  0  0  0  0  0  0  0
  -11.6625    1.0877    0.0000 O   0  0  0  0  0  0  0  0  0  0  0  0
   -9.7635    1.4225    0.0000 C   0  0  0  0  0  0  0  0  0  0  0  0
   -8.2635    1.4225    0.0000 C   0  0  0  0  0  0  0  0  0  0  0  0
   -7.5135    0.1235    0.0000 C   0  0  0  0  0  0  0  0  0  0  0  0
   -6.0435    2.6696    0.0000 C   0  0  0  0  0  0  0  0  0  0  0  0
   -1.2854    2.5020    0.0000 C   0  0  0  0  0  0  0  0  0  0  0  0
   -1.5462   -0.1884    0.0000 C   0  0  0  0  0  0  0  0  0  0  0  0
   -0.1759    0.4217    0.0000 C   0  0  0  0  0  0  0  0  0  0  0  0
    1.8143    1.8677    0.0000 C   0  0  0  0  0  0  0  0  0  0  0  0
    0.8278   -0.6930    0.0000 C   0  0  0  0  0  0  0  0  0  0  0  0
    1.4379    0.6773    0.0000 O   0  0  0  0  0  0  0  0  0  0  0  0
    2.9297    0.8341    0.0000 C   0  0  0  0  0  0  0  0  0  0  0  0
    3.8113   -0.3794    0.0000 C   0  0  0  0  0  0  0  0  0  0  0  0
    5.8508   -1.7550    0.0000 C   0  0  0  0  0  0  0  0  0  0  0  0
    3.2012   -1.7497    0.0000 C   0  0  0  0  0  0  0  0  0  0  0  0
    1.7095   -1.9065    0.0000 C   0  0  0  0  0  0  0  0  0  0  0  0
    0.0778   -1.9920    0.0000 O   0  0  0  0  0  0  0  0  0  0  0  0
  1  2  1  0
  2  3  1  0
  3  4  1  0
  4  5  1  0
  5  6  1  0
  6  7  1  0
  7  8  1  0
  3  8  1  0
  8  9  1  0
  9 10  1  0
 10 11  1  0
 11 12  1  0
 12 13  1  0
 13 14  1  0
 13 15  1  0
 15 16  1  0
 16 17  1  0
 11 17  1  0
  7 17  1  0
 17 18  1  1
  4 19  1  1
  4 20  1  0
  1 20  1  0
 20 21  1  0
 21 22  1  0
 21 23  1  0
 23 24  1  0
 24 25  1  0
 25 26  1  0
 26 27  1  0
 26 28  1  0
 28 29  1  0
 23 29  1  1
 23 30  1  0
  1 30  1  0
M  END
>  <cdk:Title>  (579) 
Neotigogenin

>  <1A2>  (579) 
N

>  <2A6>  (579) 
N

>  <2B6>  (579) 
N

>  <2C8>  (579) 
N

>  <2C9>  (579) 
N

>  <2C19>  (579) 
N

>  <2D6>  (579) 
N

>  <2E1>  (579) 
N

>  <3A4>  (579) 
N

>  <Citation>  (579) 
Nucleic Acids Res. 2018. Jan 4;46(D1):D608-17. PMID:29140435
Nucleic Acids Res. 2018 Jan 4;46(D1):D1074-D1082. PMID:29126136
Nucleic Acids Res., 45:D380-388 (2017).  PMID:27924025
Nucleic Acids Res. 2016 Jan 4;44(D1):D1202-13. PMID:26400175

>  <ROMol>  (579) 
<rdkit.Chem.rdchem.Mol object at 0x7c2905d8e1f0>

>  <Drug_like>  (579) 
True

$$$$
Gamma-Glutamylglutamine
     RDKit          2D

 19 18  0  0  0  0  0  0  0  0999 V2000
    9.4018   -1.8823    0.0000 O   0  0  0  0  0  0  0  0  0  0  0  0
    9.4018   -0.3823    0.0000 C   0  0  0  0  0  0  0  0  0  0  0  0
    8.1028    0.3677    0.0000 N   0  0  0  0  0  0  0  0  0  0  0  0
    6.8037   -0.3823    0.0000 C   0  0  0  0  0  0  0  0  0  0  0  0
    5.5047    0.3677    0.0000 C   0  0  0  0  0  0  0  0  0  0  0  0
    5.5047    1.8677    0.0000 C   0  0  0  0  0  0  0  0  0  0  0  0
    4.2057    2.6177    0.0000 C   0  0  0  0  0  0  0  0  0  0  0  0
    2.9066    1.8677    0.0000 O   0  0  0  0  0  0  0  0  0  0  0  0
    4.2057    4.1177    0.0000 N   0  0  0  0  0  0  0  0  0  0  0  0
    5.5310   -1.8991    0.0000 C   0  0  0  0  0  0  0  0  0  0  0  0
    4.0538   -1.6386    0.0000 O   0  0  0  0  0  0  0  0  0  0  0  0
    6.0440   -3.3086    0.0000 O   0  0  0  0  0  0  0  0  0  0  0  0
   10.7008    0.3677    0.0000 C   0  0  0  0  0  0  0  0  0  0  0  0
   12.4156   -0.6223    0.0000 C   0  0  0  0  0  0  0  0  0  0  0  0
   13.7146    0.1277    0.0000 C   0  0  0  0  0  0  0  0  0  0  0  0
   14.6788    1.2768    0.0000 N   0  0  0  0  0  0  0  0  0  0  0  0
   15.0136   -0.6223    0.0000 C   0  0  0  0  0  0  0  0  0  0  0  0
   16.3127    0.1277    0.0000 O   0  0  0  0  0  0  0  0  0  0  0  0
   15.0136   -2.1223    0.0000 O   0  0  0  0  0  0  0  0  0  0  0  0
  1  2  2  0
  2  3  1  0
  3  4  1  0
  4  5  1  0
  5  6  1  0
  6  7  1  0
  7  8  2  0
  7  9  1  0
  4 10  1  0
 10 11  1  0
 10 12  2  0
  2 13  1  0
 13 14  1  0
 14 15  1  0
 15 16  1  0
 15 17  1  0
 17 18  1  0
 17 19  2  0
M  END
>  <cdk:Title>  (580) 
Gamma-Glutamylglutamine

>  <1A2>  (580) 
N

>  <2A6>  (580) 
N

>  <2B6>  (580) 
N

>  <2C8>  (580) 
N

>  <2C9>  (580) 
N

>  <2C19>  (580) 
N

>  <2D6>  (580) 
N

>  <2E1>  (580) 
N

>  <3A4>  (580) 
N

>  <Citation>  (580) 
Nucleic Acids Res. 2018. Jan 4;46(D1):D608-17. PMID:29140435
Nucleic Acids Res. 2018 Jan 4;46(D1):D1074-D1082. PMID:29126136
Nucleic Acids Res., 45:D380-388 (2017).  PMID:27924025
Nucleic Acids Res. 2016 Jan 4;44(D1):D1202-13. PMID:26400175

>  <ROMol>  (580) 
<rdkit.Chem.rdchem.Mol object at 0x7c2905d8e260>

>  <Drug_like>  (580) 
True

$$$$
UNII-X69h9499Rf component cevoeedueyzgmy-vifpvbqesa-N
     RDKit          2D

 12 11  0  0  0  0  0  0  0  0999 V2000
   12.1070   -0.9900    0.0000 C   0  0  0  0  0  0  0  0  0  0  0  0
   10.8080   -0.2400    0.0000 C   0  0  0  0  0  0  0  0  0  0  0  0
    9.5090   -0.9900    0.0000 C   0  0  0  0  0  0  0  0  0  0  0  0
    8.5448   -2.1391    0.0000 C   0  0  0  0  0  0  0  0  0  0  0  0
    7.7942   -0.0000    0.0000 C   0  0  0  0  0  0  0  0  0  0  0  0
    6.4952   -0.7500    0.0000 O   0  0  0  0  0  0  0  0  0  0  0  0
    5.1962   -0.0000    0.0000 C   0  0  0  0  0  0  0  0  0  0  0  0
    3.8971   -0.7500    0.0000 C   0  0  0  0  0  0  0  0  0  0  0  0
    2.5981   -0.0000    0.0000 C   0  0  0  0  0  0  0  0  0  0  0  0
    1.2990   -0.7500    0.0000 C   0  0  0  0  0  0  0  0  0  0  0  0
    2.5981    1.5000    0.0000 C   0  0  0  0  0  0  0  0  0  0  0  0
    5.1962    1.5000    0.0000 O   0  0  0  0  0  0  0  0  0  0  0  0
  1  2  1  0
  2  3  1  0
  3  4  1  0
  3  5  1  0
  5  6  1  0
  6  7  1  0
  7  8  1  0
  8  9  2  0
  9 10  1  0
  9 11  1  0
  7 12  2  0
M  END
>  <cdk:Title>  (581) 
UNII-X69h9499Rf component cevoeedueyzgmy-vifpvbqesa-N

>  <1A2>  (581) 
N

>  <2A6>  (581) 
N

>  <2B6>  (581) 
N

>  <2C8>  (581) 
N

>  <2C9>  (581) 
N

>  <2C19>  (581) 
N

>  <2D6>  (581) 
N

>  <2E1>  (581) 
N

>  <3A4>  (581) 
N

>  <Citation>  (581) 
Nucleic Acids Res. 2018. Jan 4;46(D1):D608-17. PMID:29140435
Nucleic Acids Res. 2018 Jan 4;46(D1):D1074-D1082. PMID:29126136
Nucleic Acids Res., 45:D380-388 (2017).  PMID:27924025
Nucleic Acids Res. 2016 Jan 4;44(D1):D1202-13. PMID:26400175

>  <ROMol>  (581) 
<rdkit.Chem.rdchem.Mol object at 0x7c2905d8e340>

>  <Drug_like>  (581) 
True

$$$$
AC1odtjm
     RDKit          2D

  9  9  0  0  0  0  0  0  0  0999 V2000
    4.0195    1.1470    0.0000 C   0  0  0  0  0  0  0  0  0  0  0  0
    2.5275    0.9922    0.0000 C   0  0  0  0  0  0  0  0  0  0  0  0
    1.0347    1.1580    0.0000 C   0  0  0  0  0  0  0  0  0  0  0  0
    0.4318   -0.2178    0.0000 C   0  0  0  0  0  0  0  0  0  0  0  0
   -2.1196    1.2430    0.0000 C   0  0  0  0  0  0  0  0  0  0  0  0
   -1.2931   -2.5986    0.0000 C   0  0  0  0  0  0  0  0  0  0  0  0
    1.5401   -1.2175    0.0000 C   0  0  0  0  0  0  0  0  0  0  0  0
    2.8392   -0.4675    0.0000 C   0  0  0  0  0  0  0  0  0  0  0  0
    4.2098   -1.0770    0.0000 O   0  0  0  0  0  0  0  0  0  0  0  0
  1  2  1  0
  2  3  1  0
  3  4  1  0
  4  5  1  0
  4  6  1  0
  4  7  1  0
  7  8  1  0
  2  8  1  0
  8  9  2  0
M  END
>  <cdk:Title>  (582) 
AC1odtjm

>  <1A2>  (582) 
N

>  <2A6>  (582) 
N

>  <2B6>  (582) 
N

>  <2C8>  (582) 
N

>  <2C9>  (582) 
N

>  <2C19>  (582) 
N

>  <2D6>  (582) 
N

>  <2E1>  (582) 
N

>  <3A4>  (582) 
N

>  <Citation>  (582) 
Nucleic Acids Res. 2018. Jan 4;46(D1):D608-17. PMID:29140435
Nucleic Acids Res. 2018 Jan 4;46(D1):D1074-D1082. PMID:29126136
Nucleic Acids Res., 45:D380-388 (2017).  PMID:27924025
Nucleic Acids Res. 2016 Jan 4;44(D1):D1202-13. PMID:26400175

>  <ROMol>  (582) 
<rdkit.Chem.rdchem.Mol object at 0x7c2905d8e490>

>  <Drug_like>  (582) 
True

$$$$
3-Methyl-2-butene-1-thiol
     RDKit          2D

  6  5  0  0  0  0  0  0  0  0999 V2000
    2.5981    1.5000    0.0000 C   0  0  0  0  0  0  0  0  0  0  0  0
    2.5981   -0.0000    0.0000 C   0  0  0  0  0  0  0  0  0  0  0  0
    1.2990   -0.7500    0.0000 C   0  0  0  0  0  0  0  0  0  0  0  0
    3.8971   -0.7500    0.0000 C   0  0  0  0  0  0  0  0  0  0  0  0
    5.1962   -0.0000    0.0000 C   0  0  0  0  0  0  0  0  0  0  0  0
    6.4952   -0.7500    0.0000 S   0  0  0  0  0  0  0  0  0  0  0  0
  1  2  1  0
  2  3  1  0
  2  4  2  0
  4  5  1  0
  5  6  1  0
M  END
>  <cdk:Title>  (583) 
3-Methyl-2-butene-1-thiol

>  <1A2>  (583) 
N

>  <2A6>  (583) 
N

>  <2B6>  (583) 
N

>  <2C8>  (583) 
N

>  <2C9>  (583) 
N

>  <2C19>  (583) 
N

>  <2D6>  (583) 
N

>  <2E1>  (583) 
N

>  <3A4>  (583) 
N

>  <Citation>  (583) 
Nucleic Acids Res. 2018. Jan 4;46(D1):D608-17. PMID:29140435
Nucleic Acids Res. 2018 Jan 4;46(D1):D1074-D1082. PMID:29126136
Nucleic Acids Res., 45:D380-388 (2017).  PMID:27924025
Nucleic Acids Res. 2016 Jan 4;44(D1):D1202-13. PMID:26400175

>  <ROMol>  (583) 
<rdkit.Chem.rdchem.Mol object at 0x7c2905d8e570>

>  <Drug_like>  (583) 
True

$$$$
Lithocholate 3-O-glucuronide
     RDKit          2D

 39 43  0  0  0  0  0  0  0  0999 V2000
   -9.0891   -0.8179    0.0000 C   0  0  0  0  0  0  0  0  0  0  0  0
  -10.5952   -1.0872    0.0000 C   0  0  0  0  0  0  0  0  0  0  0  0
  -11.5641    0.0703    0.0000 C   0  0  0  0  0  0  0  0  0  0  0  0
  -11.0493    1.4525    0.0000 C   0  0  0  0  0  0  0  0  0  0  0  0
   -9.5432    1.7218    0.0000 C   0  0  0  0  0  0  0  0  0  0  0  0
   -8.6109    0.5984    0.0000 C   0  0  0  0  0  0  0  0  0  0  0  0
   -6.6442    1.2327    0.0000 C   0  0  0  0  0  0  0  0  0  0  0  0
   -9.0633    3.1283    0.0000 C   0  0  0  0  0  0  0  0  0  0  0  0
  -10.0062    4.3107    0.0000 C   0  0  0  0  0  0  0  0  0  0  0  0
  -11.5123    4.0414    0.0000 C   0  0  0  0  0  0  0  0  0  0  0  0
  -12.0165    2.6002    0.0000 C   0  0  0  0  0  0  0  0  0  0  0  0
   -9.5210    5.6877    0.0000 C   0  0  0  0  0  0  0  0  0  0  0  0
   -8.0740    5.9464    0.0000 C   0  0  0  0  0  0  0  0  0  0  0  0
   -7.1023    4.8300    0.0000 C   0  0  0  0  0  0  0  0  0  0  0  0
   -7.6163    3.3870    0.0000 C   0  0  0  0  0  0  0  0  0  0  0  0
   -5.7174    6.6522    0.0000 C   0  0  0  0  0  0  0  0  0  0  0  0
   -7.8729    7.4351    0.0000 C   0  0  0  0  0  0  0  0  0  0  0  0
   -9.2118    8.0490    0.0000 C   0  0  0  0  0  0  0  0  0  0  0  0
  -10.2354    7.0126    0.0000 C   0  0  0  0  0  0  0  0  0  0  0  0
   -6.9164   10.2151    0.0000 C   0  0  0  0  0  0  0  0  0  0  0  0
   -8.2158   11.7091    0.0000 C   0  0  0  0  0  0  0  0  0  0  0  0
   -7.7279   13.1275    0.0000 C   0  0  0  0  0  0  0  0  0  0  0  0
   -8.7123   14.2593    0.0000 C   0  0  0  0  0  0  0  0  0  0  0  0
   -8.2243   15.6777    0.0000 O   0  0  0  0  0  0  0  0  0  0  0  0
  -10.1846   13.9727    0.0000 O   0  0  0  0  0  0  0  0  0  0  0  0
   -5.6043    9.4883    0.0000 C   0  0  0  0  0  0  0  0  0  0  0  0
   -9.5863   -3.8487    0.0000 O   0  0  0  0  0  0  0  0  0  0  0  0
  -10.5491   -4.9989    0.0000 C   0  0  0  0  0  0  0  0  0  0  0  0
   -9.2595   -5.7453    0.0000 C   0  0  0  0  0  0  0  0  0  0  0  0
   -9.2630   -7.2685    0.0000 C   0  0  0  0  0  0  0  0  0  0  0  0
  -10.5720   -8.0129    0.0000 C   0  0  0  0  0  0  0  0  0  0  0  0
  -11.5395   -9.1592    0.0000 O   0  0  0  0  0  0  0  0  0  0  0  0
  -11.8616   -7.2665    0.0000 C   0  0  0  0  0  0  0  0  0  0  0  0
  -11.8594   -5.7657    0.0000 O   0  0  0  0  0  0  0  0  0  0  0  0
  -13.3384   -7.0041    0.0000 C   0  0  0  0  0  0  0  0  0  0  0  0
  -14.3041   -8.1519    0.0000 O   0  0  0  0  0  0  0  0  0  0  0  0
  -13.8496   -5.5939    0.0000 O   0  0  0  0  0  0  0  0  0  0  0  0
   -8.7572   -8.6806    0.0000 O   0  0  0  0  0  0  0  0  0  0  0  0
   -7.7828   -6.0086    0.0000 O   0  0  0  0  0  0  0  0  0  0  0  0
  1  2  1  0
  2  3  1  0
  3  4  1  0
  4  5  1  0
  5  6  1  0
  1  6  1  0
  5  7  1  1
  5  8  1  0
  8  9  1  0
  9 10  1  0
 10 11  1  0
  4 11  1  0
  9 12  1  0
 12 13  1  0
 13 14  1  0
 14 15  1  0
  8 15  1  0
 13 16  1  1
 13 17  1  0
 17 18  1  0
 18 19  1  0
 12 19  1  0
 17 20  1  0
 20 21  1  0
 21 22  1  0
 22 23  1  0
 23 24  1  0
 23 25  2  0
 20 26  1  0
  2 27  1  0
 27 28  1  0
 28 29  1  0
 29 30  1  0
 30 31  1  0
 31 32  1  0
 31 33  1  0
 33 34  1  0
 28 34  1  0
 33 35  1  0
 35 36  1  0
 35 37  2  0
 30 38  1  0
 29 39  1  0
M  END
>  <cdk:Title>  (584) 
Lithocholate 3-O-glucuronide

>  <1A2>  (584) 
N

>  <2A6>  (584) 
N

>  <2B6>  (584) 
N

>  <2C8>  (584) 
N

>  <2C9>  (584) 
N

>  <2C19>  (584) 
N

>  <2D6>  (584) 
N

>  <2E1>  (584) 
N

>  <3A4>  (584) 
N

>  <Citation>  (584) 
Nucleic Acids Res. 2018. Jan 4;46(D1):D608-17. PMID:29140435
Nucleic Acids Res. 2018 Jan 4;46(D1):D1074-D1082. PMID:29126136
Nucleic Acids Res., 45:D380-388 (2017).  PMID:27924025
Nucleic Acids Res. 2016 Jan 4;44(D1):D1202-13. PMID:26400175

>  <ROMol>  (584) 
<rdkit.Chem.rdchem.Mol object at 0x7c2905d8e5e0>

>  <Drug_like>  (584) 
True

$$$$
Avocadynofuran
     RDKit          2D

 18 18  0  0  0  0  0  0  0  0999 V2000
   -2.9564    0.1337    0.0000 C   0  0  0  0  0  0  0  0  0  0  0  0
   -1.8427   -0.8711    0.0000 C   0  0  0  0  0  0  0  0  0  0  0  0
   -0.7290   -1.8759    0.0000 C   0  0  0  0  0  0  0  0  0  0  0  0
    0.6980   -1.4139    0.0000 C   0  0  0  0  0  0  0  0  0  0  0  0
    1.0114    0.0530    0.0000 C   0  0  0  0  0  0  0  0  0  0  0  0
    3.3518    0.8108    0.0000 C   0  0  0  0  0  0  0  0  0  0  0  0
    3.7654    2.7471    0.0000 C   0  0  0  0  0  0  0  0  0  0  0  0
    5.1925    3.2092    0.0000 C   0  0  0  0  0  0  0  0  0  0  0  0
    5.7064    5.6149    0.0000 C   0  0  0  0  0  0  0  0  0  0  0  0
    7.5901    6.2249    0.0000 C   0  0  0  0  0  0  0  0  0  0  0  0
    8.0038    8.1612    0.0000 C   0  0  0  0  0  0  0  0  0  0  0  0
    9.8875    8.7711    0.0000 C   0  0  0  0  0  0  0  0  0  0  0  0
   10.2009   10.2380    0.0000 C   0  0  0  0  0  0  0  0  0  0  0  0
   11.6279   10.7001    0.0000 C   0  0  0  0  0  0  0  0  0  0  0  0
   12.0979   12.1201    0.0000 C   0  0  0  0  0  0  0  0  0  0  0  0
   13.5979   12.1201    0.0000 C   0  0  0  0  0  0  0  0  0  0  0  0
   14.0579   10.7001    0.0000 C   0  0  0  0  0  0  0  0  0  0  0  0
   12.8479    9.8201    0.0000 O   0  0  0  0  0  0  0  0  0  0  0  0
  1  2  3  0
  2  3  1  0
  3  4  1  0
  4  5  1  0
  5  6  1  0
  6  7  1  0
  7  8  1  0
  8  9  1  0
  9 10  1  0
 10 11  1  0
 11 12  1  0
 12 13  1  0
 13 14  1  0
 14 15  2  0
 15 16  1  0
 16 17  2  0
 17 18  1  0
 14 18  1  0
M  END
>  <cdk:Title>  (585) 
Avocadynofuran

>  <1A2>  (585) 
N

>  <2A6>  (585) 
N

>  <2B6>  (585) 
N

>  <2C8>  (585) 
N

>  <2C9>  (585) 
N

>  <2C19>  (585) 
N

>  <2D6>  (585) 
N

>  <2E1>  (585) 
N

>  <3A4>  (585) 
N

>  <Citation>  (585) 
Nucleic Acids Res. 2018. Jan 4;46(D1):D608-17. PMID:29140435
Nucleic Acids Res. 2018 Jan 4;46(D1):D1074-D1082. PMID:29126136
Nucleic Acids Res., 45:D380-388 (2017).  PMID:27924025
Nucleic Acids Res. 2016 Jan 4;44(D1):D1202-13. PMID:26400175

>  <ROMol>  (585) 
<rdkit.Chem.rdchem.Mol object at 0x7c2905d8e6c0>

>  <Drug_like>  (585) 
True

$$$$
His-pro
     RDKit          2D

 18 19  0  0  0  0  0  0  0  0999 V2000
    0.3919   -6.2325    0.0000 O   0  0  0  0  0  0  0  0  0  0  0  0
    0.3936   -4.7325    0.0000 C   0  0  0  0  0  0  0  0  0  0  0  0
   -0.9045   -3.9810    0.0000 O   0  0  0  0  0  0  0  0  0  0  0  0
    1.6935   -3.9840    0.0000 C   0  0  0  0  0  0  0  0  0  0  0  0
    3.1235   -3.5140    0.0000 C   0  0  0  0  0  0  0  0  0  0  0  0
    3.1235   -2.0140    0.0000 C   0  0  0  0  0  0  0  0  0  0  0  0
    1.6935   -1.5540    0.0000 C   0  0  0  0  0  0  0  0  0  0  0  0
    0.8135   -2.7640    0.0000 N   0  0  0  0  0  0  0  0  0  0  0  0
   -2.1264   -2.7583    0.0000 C   0  0  0  0  0  0  0  0  0  0  0  0
   -2.8790   -4.0559    0.0000 O   0  0  0  0  0  0  0  0  0  0  0  0
   -2.8739   -1.4578    0.0000 C   0  0  0  0  0  0  0  0  0  0  0  0
   -1.4634   -0.9475    0.0000 N   0  0  0  0  0  0  0  0  0  0  0  0
   -4.3739   -1.4549    0.0000 C   0  0  0  0  0  0  0  0  0  0  0  0
   -5.1214   -0.1544    0.0000 C   0  0  0  0  0  0  0  0  0  0  0  0
   -6.6153    0.0085    0.0000 C   0  0  0  0  0  0  0  0  0  0  0  0
   -6.9210    1.4721    0.0000 N   0  0  0  0  0  0  0  0  0  0  0  0
   -5.6204    2.2154    0.0000 C   0  0  0  0  0  0  0  0  0  0  0  0
   -4.5152    1.2071    0.0000 N   0  0  0  0  0  0  0  0  0  0  0  0
  1  2  1  0
  2  3  2  0
  2  4  1  0
  4  5  1  0
  5  6  1  0
  6  7  1  0
  7  8  1  0
  4  8  1  0
  8  9  1  0
  9 10  2  0
  9 11  1  0
 11 12  1  0
 11 13  1  0
 13 14  1  0
 14 15  2  0
 15 16  1  0
 16 17  2  0
 17 18  1  0
 14 18  1  0
M  END
>  <cdk:Title>  (586) 
His-pro

>  <1A2>  (586) 
N

>  <2A6>  (586) 
N

>  <2B6>  (586) 
N

>  <2C8>  (586) 
N

>  <2C9>  (586) 
N

>  <2C19>  (586) 
N

>  <2D6>  (586) 
N

>  <2E1>  (586) 
N

>  <3A4>  (586) 
N

>  <Citation>  (586) 
Nucleic Acids Res. 2018. Jan 4;46(D1):D608-17. PMID:29140435
Nucleic Acids Res. 2018 Jan 4;46(D1):D1074-D1082. PMID:29126136
Nucleic Acids Res., 45:D380-388 (2017).  PMID:27924025
Nucleic Acids Res. 2016 Jan 4;44(D1):D1202-13. PMID:26400175

>  <ROMol>  (586) 
<rdkit.Chem.rdchem.Mol object at 0x7c2905d8e730>

>  <Drug_like>  (586) 
True

$$$$
Pro-arg
     RDKit          2D

 19 19  0  0  0  0  0  0  0  0999 V2000
    1.8979    8.8366    0.0000 N   0  0  0  0  0  0  0  0  0  0  0  0
    2.3612    7.4100    0.0000 C   0  0  0  0  0  0  0  0  0  0  0  0
    1.3574    6.2954    0.0000 O   0  0  0  0  0  0  0  0  0  0  0  0
    3.8284    7.0979    0.0000 C   0  0  0  0  0  0  0  0  0  0  0  0
    5.3246    7.0967    0.0000 C   0  0  0  0  0  0  0  0  0  0  0  0
    5.7925    5.6693    0.0000 C   0  0  0  0  0  0  0  0  0  0  0  0
    4.5787    4.7880    0.0000 C   0  0  0  0  0  0  0  0  0  0  0  0
    3.3663    5.6749    0.0000 N   0  0  0  0  0  0  0  0  0  0  0  0
    0.4308    9.1487    0.0000 C   0  0  0  0  0  0  0  0  0  0  0  0
   -0.5731    8.0342    0.0000 C   0  0  0  0  0  0  0  0  0  0  0  0
   -2.9793    8.5460    0.0000 C   0  0  0  0  0  0  0  0  0  0  0  0
   -3.9831    7.4315    0.0000 C   0  0  0  0  0  0  0  0  0  0  0  0
   -5.4503    7.7436    0.0000 N   0  0  0  0  0  0  0  0  0  0  0  0
   -6.4542    6.6290    0.0000 C   0  0  0  0  0  0  0  0  0  0  0  0
   -7.9214    6.9411    0.0000 N   0  0  0  0  0  0  0  0  0  0  0  0
   -5.9909    5.2023    0.0000 N   0  0  0  0  0  0  0  0  0  0  0  0
    0.9929   10.5394    0.0000 C   0  0  0  0  0  0  0  0  0  0  0  0
    0.0696   11.7216    0.0000 O   0  0  0  0  0  0  0  0  0  0  0  0
    2.4783   10.7479    0.0000 O   0  0  0  0  0  0  0  0  0  0  0  0
  1  2  1  0
  2  3  2  0
  2  4  1  0
  4  5  1  0
  5  6  1  0
  6  7  1  0
  7  8  1  0
  4  8  1  0
  1  9  1  0
  9 10  1  0
 10 11  1  0
 11 12  1  0
 12 13  1  0
 13 14  1  0
 14 15  1  0
 14 16  2  0
  9 17  1  0
 17 18  1  0
 17 19  2  0
M  END
>  <cdk:Title>  (587) 
Pro-arg

>  <1A2>  (587) 
N

>  <2A6>  (587) 
N

>  <2B6>  (587) 
N

>  <2C8>  (587) 
N

>  <2C9>  (587) 
N

>  <2C19>  (587) 
N

>  <2D6>  (587) 
N

>  <2E1>  (587) 
N

>  <3A4>  (587) 
N

>  <Citation>  (587) 
Nucleic Acids Res. 2018. Jan 4;46(D1):D608-17. PMID:29140435
Nucleic Acids Res. 2018 Jan 4;46(D1):D1074-D1082. PMID:29126136
Nucleic Acids Res., 45:D380-388 (2017).  PMID:27924025
Nucleic Acids Res. 2016 Jan 4;44(D1):D1202-13. PMID:26400175

>  <ROMol>  (587) 
<rdkit.Chem.rdchem.Mol object at 0x7c2905d8e7a0>

>  <Drug_like>  (587) 
True

$$$$
Thelephoric acid
     RDKit          2D

 26 30  0  0  0  0  0  0  0  0999 V2000
    2.0367    3.3338    0.0000 C   0  0  0  0  0  0  0  0  0  0  0  0
    1.4266    1.9635    0.0000 C   0  0  0  0  0  0  0  0  0  0  0  0
    2.3083    0.7500    0.0000 C   0  0  0  0  0  0  0  0  0  0  0  0
    3.8000    0.9068    0.0000 C   0  0  0  0  0  0  0  0  0  0  0  0
    4.4102    2.2771    0.0000 C   0  0  0  0  0  0  0  0  0  0  0  0
    3.5285    3.4906    0.0000 C   0  0  0  0  0  0  0  0  0  0  0  0
    4.1386    4.8610    0.0000 O   0  0  0  0  0  0  0  0  0  0  0  0
    5.9019    2.4339    0.0000 O   0  0  0  0  0  0  0  0  0  0  0  0
    1.4266   -0.4635    0.0000 O   0  0  0  0  0  0  0  0  0  0  0  0
   -0.0000    0.0000    0.0000 C   0  0  0  0  0  0  0  0  0  0  0  0
    0.0000    1.5000    0.0000 C   0  0  0  0  0  0  0  0  0  0  0  0
   -1.2990    2.2500    0.0000 C   0  0  0  0  0  0  0  0  0  0  0  0
   -2.5981    1.5000    0.0000 C   0  0  0  0  0  0  0  0  0  0  0  0
   -2.5981    0.0000    0.0000 C   0  0  0  0  0  0  0  0  0  0  0  0
   -4.0247   -0.4635    0.0000 C   0  0  0  0  0  0  0  0  0  0  0  0
   -4.6348   -1.8338    0.0000 C   0  0  0  0  0  0  0  0  0  0  0  0
   -6.1265   -1.9906    0.0000 C   0  0  0  0  0  0  0  0  0  0  0  0
   -7.0082   -0.7771    0.0000 C   0  0  0  0  0  0  0  0  0  0  0  0
   -6.3981    0.5932    0.0000 C   0  0  0  0  0  0  0  0  0  0  0  0
   -4.9063    0.7500    0.0000 C   0  0  0  0  0  0  0  0  0  0  0  0
   -4.0247    1.9635    0.0000 O   0  0  0  0  0  0  0  0  0  0  0  0
   -8.5000   -0.9339    0.0000 O   0  0  0  0  0  0  0  0  0  0  0  0
   -6.7367   -3.3610    0.0000 O   0  0  0  0  0  0  0  0  0  0  0  0
   -1.2990   -0.7500    0.0000 C   0  0  0  0  0  0  0  0  0  0  0  0
   -1.2990   -2.2500    0.0000 O   0  0  0  0  0  0  0  0  0  0  0  0
   -1.2990    3.7500    0.0000 O   0  0  0  0  0  0  0  0  0  0  0  0
  1  2  2  0
  2  3  1  0
  3  4  2  0
  4  5  1  0
  5  6  2  0
  1  6  1  0
  6  7  1  0
  5  8  1  0
  3  9  1  0
  9 10  1  0
 10 11  2  0
  2 11  1  0
 11 12  1  0
 12 13  1  0
 13 14  2  0
 14 15  1  0
 15 16  2  0
 16 17  1  0
 17 18  2  0
 18 19  1  0
 19 20  2  0
 15 20  1  0
 20 21  1  0
 13 21  1  0
 18 22  1  0
 17 23  1  0
 14 24  1  0
 10 24  1  0
 24 25  2  0
 12 26  2  0
M  END
>  <cdk:Title>  (588) 
Thelephoric acid

>  <1A2>  (588) 
N

>  <2A6>  (588) 
N

>  <2B6>  (588) 
N

>  <2C8>  (588) 
N

>  <2C9>  (588) 
N

>  <2C19>  (588) 
N

>  <2D6>  (588) 
N

>  <2E1>  (588) 
N

>  <3A4>  (588) 
N

>  <Citation>  (588) 
Nucleic Acids Res. 2018. Jan 4;46(D1):D608-17. PMID:29140435
Nucleic Acids Res. 2018 Jan 4;46(D1):D1074-D1082. PMID:29126136
Nucleic Acids Res., 45:D380-388 (2017).  PMID:27924025
Nucleic Acids Res. 2016 Jan 4;44(D1):D1202-13. PMID:26400175

>  <ROMol>  (588) 
<rdkit.Chem.rdchem.Mol object at 0x7c2905d8e9d0>

>  <Drug_like>  (588) 
True

$$$$
ZINC1584045
     RDKit          2D

 14 14  0  0  0  0  0  0  0  0999 V2000
   -3.0711    2.1793    0.0000 C   0  0  0  0  0  0  0  0  0  0  0  0
   -1.5791    2.3341    0.0000 C   0  0  0  0  0  0  0  0  0  0  0  0
   -0.6991    1.1194    0.0000 C   0  0  0  0  0  0  0  0  0  0  0  0
    1.7478    1.3732    0.0000 C   0  0  0  0  0  0  0  0  0  0  0  0
    2.6278    0.1584    0.0000 C   0  0  0  0  0  0  0  0  0  0  0  0
    4.5972    0.3627    0.0000 C   0  0  0  0  0  0  0  0  0  0  0  0
    5.7589   -1.2407    0.0000 C   0  0  0  0  0  0  0  0  0  0  0  0
    7.7283   -1.0364    0.0000 C   0  0  0  0  0  0  0  0  0  0  0  0
    8.6083   -2.2512    0.0000 C   0  0  0  0  0  0  0  0  0  0  0  0
    9.2112   -3.6269    0.0000 O   0  0  0  0  0  0  0  0  0  0  0  0
   10.7041   -3.4612    0.0000 C   0  0  0  0  0  0  0  0  0  0  0  0
   11.0157   -2.0014    0.0000 C   0  0  0  0  0  0  0  0  0  0  0  0
   12.8984   -2.6144    0.0000 C   0  0  0  0  0  0  0  0  0  0  0  0
    9.7167   -1.2514    0.0000 O   0  0  0  0  0  0  0  0  0  0  0  0
  1  2  1  0
  2  3  1  0
  3  4  1  0
  4  5  1  0
  5  6  1  0
  6  7  1  0
  7  8  1  0
  8  9  1  0
  9 10  1  0
 10 11  1  0
 11 12  1  0
 12 13  1  0
 12 14  1  0
  9 14  1  0
M  END
>  <cdk:Title>  (589) 
ZINC1584045

>  <1A2>  (589) 
N

>  <2A6>  (589) 
N

>  <2B6>  (589) 
N

>  <2C8>  (589) 
N

>  <2C9>  (589) 
N

>  <2C19>  (589) 
N

>  <2D6>  (589) 
N

>  <2E1>  (589) 
N

>  <3A4>  (589) 
N

>  <Citation>  (589) 
Nucleic Acids Res. 2018. Jan 4;46(D1):D608-17. PMID:29140435
Nucleic Acids Res. 2018 Jan 4;46(D1):D1074-D1082. PMID:29126136
Nucleic Acids Res., 45:D380-388 (2017).  PMID:27924025
Nucleic Acids Res. 2016 Jan 4;44(D1):D1202-13. PMID:26400175

>  <ROMol>  (589) 
<rdkit.Chem.rdchem.Mol object at 0x7c2905d8ea40>

>  <Drug_like>  (589) 
True

$$$$
5-Hydroxytryptophol glucuronide
     RDKit          2D

 24 26  0  0  0  0  0  0  0  0999 V2000
   -1.8980    5.5385    0.0000 C   0  0  0  0  0  0  0  0  0  0  0  0
   -1.0213    6.7552    0.0000 C   0  0  0  0  0  0  0  0  0  0  0  0
    0.4700    6.6077    0.0000 C   0  0  0  0  0  0  0  0  0  0  0  0
    1.0825    5.2338    0.0000 C   0  0  0  0  0  0  0  0  0  0  0  0
    0.2058    4.0171    0.0000 C   0  0  0  0  0  0  0  0  0  0  0  0
   -1.2835    4.1744    0.0000 C   0  0  0  0  0  0  0  0  0  0  0  0
   -2.1628    2.9591    0.0000 O   0  0  0  0  0  0  0  0  0  0  0  0
   -3.6549    3.1130    0.0000 C   0  0  0  0  0  0  0  0  0  0  0  0
   -3.5514    1.6266    0.0000 C   0  0  0  0  0  0  0  0  0  0  0  0
   -2.9429    0.2556    0.0000 O   0  0  0  0  0  0  0  0  0  0  0  0
   -4.8155    0.7768    0.0000 C   0  0  0  0  0  0  0  0  0  0  0  0
   -5.7025   -0.4329    0.0000 O   0  0  0  0  0  0  0  0  0  0  0  0
   -6.1651    1.4447    0.0000 C   0  0  0  0  0  0  0  0  0  0  0  0
   -6.2685    2.9311    0.0000 C   0  0  0  0  0  0  0  0  0  0  0  0
   -5.0237    3.7696    0.0000 O   0  0  0  0  0  0  0  0  0  0  0  0
   -6.8779    4.3018    0.0000 C   0  0  0  0  0  0  0  0  0  0  0  0
   -8.3696    4.4594    0.0000 O   0  0  0  0  0  0  0  0  0  0  0  0
   -7.6566    1.6047    0.0000 O   0  0  0  0  0  0  0  0  0  0  0  0
    2.5784    5.4021    0.0000 C   0  0  0  0  0  0  0  0  0  0  0  0
    3.5883    4.2930    0.0000 C   0  0  0  0  0  0  0  0  0  0  0  0
    5.0537    4.6131    0.0000 C   0  0  0  0  0  0  0  0  0  0  0  0
    6.0637    3.5040    0.0000 O   0  0  0  0  0  0  0  0  0  0  0  0
    2.8845    6.8705    0.0000 C   0  0  0  0  0  0  0  0  0  0  0  0
    1.5785    7.6127    0.0000 N   0  0  0  0  0  0  0  0  0  0  0  0
  1  2  2  0
  2  3  1  0
  3  4  2  0
  4  5  1  0
  5  6  2  0
  1  6  1  0
  6  7  1  0
  7  8  1  0
  8  9  1  0
  9 10  1  0
  9 11  1  0
 11 12  1  0
 11 13  1  0
 13 14  1  0
 14 15  1  0
  8 15  1  0
 14 16  1  0
 16 17  1  0
 13 18  1  0
  4 19  1  0
 19 20  1  0
 20 21  1  0
 21 22  1  0
 19 23  2  0
 23 24  1  0
  3 24  1  0
M  END
>  <cdk:Title>  (590) 
5-Hydroxytryptophol glucuronide

>  <1A2>  (590) 
N

>  <2A6>  (590) 
N

>  <2B6>  (590) 
N

>  <2C8>  (590) 
N

>  <2C9>  (590) 
N

>  <2C19>  (590) 
N

>  <2D6>  (590) 
N

>  <2E1>  (590) 
N

>  <3A4>  (590) 
N

>  <Citation>  (590) 
Nucleic Acids Res. 2018. Jan 4;46(D1):D608-17. PMID:29140435
Nucleic Acids Res. 2018 Jan 4;46(D1):D1074-D1082. PMID:29126136
Nucleic Acids Res., 45:D380-388 (2017).  PMID:27924025
Nucleic Acids Res. 2016 Jan 4;44(D1):D1202-13. PMID:26400175

>  <ROMol>  (590) 
<rdkit.Chem.rdchem.Mol object at 0x7c2905d8eb20>

>  <Drug_like>  (590) 
True

$$$$
8-Hete
     RDKit          2D

 23 22  0  0  0  0  0  0  0  0999 V2000
   -7.0437   -1.6591    0.0000 O   0  0  0  0  0  0  0  0  0  0  0  0
   -6.0795   -0.5100    0.0000 C   0  0  0  0  0  0  0  0  0  0  0  0
   -7.3785    0.2400    0.0000 C   0  0  0  0  0  0  0  0  0  0  0  0
   -9.0933   -0.7500    0.0000 C   0  0  0  0  0  0  0  0  0  0  0  0
  -11.6394    0.7200    0.0000 C   0  0  0  0  0  0  0  0  0  0  0  0
  -11.6394    2.2200    0.0000 C   0  0  0  0  0  0  0  0  0  0  0  0
  -10.3403    2.9700    0.0000 C   0  0  0  0  0  0  0  0  0  0  0  0
  -10.3403    4.4700    0.0000 C   0  0  0  0  0  0  0  0  0  0  0  0
  -11.6394    5.2200    0.0000 C   0  0  0  0  0  0  0  0  0  0  0  0
  -11.6394    6.7200    0.0000 O   0  0  0  0  0  0  0  0  0  0  0  0
  -12.9384    4.4700    0.0000 O   0  0  0  0  0  0  0  0  0  0  0  0
   -4.7805    0.2400    0.0000 C   0  0  0  0  0  0  0  0  0  0  0  0
   -3.4814   -0.5100    0.0000 C   0  0  0  0  0  0  0  0  0  0  0  0
   -2.1824    0.2400    0.0000 C   0  0  0  0  0  0  0  0  0  0  0  0
   -0.8833   -0.5100    0.0000 C   0  0  0  0  0  0  0  0  0  0  0  0
   -0.8833   -2.0100    0.0000 C   0  0  0  0  0  0  0  0  0  0  0  0
    0.4157   -2.7600    0.0000 C   0  0  0  0  0  0  0  0  0  0  0  0
    1.7147   -2.0100    0.0000 C   0  0  0  0  0  0  0  0  0  0  0  0
    1.7147   -0.5100    0.0000 C   0  0  0  0  0  0  0  0  0  0  0  0
    3.0138    0.2400    0.0000 C   0  0  0  0  0  0  0  0  0  0  0  0
    4.7285   -0.7500    0.0000 C   0  0  0  0  0  0  0  0  0  0  0  0
    6.0275   -0.0000    0.0000 C   0  0  0  0  0  0  0  0  0  0  0  0
    7.3266   -0.7500    0.0000 C   0  0  0  0  0  0  0  0  0  0  0  0
  1  2  1  0
  2  3  1  0
  3  4  1  0
  4  5  2  0
  5  6  1  0
  6  7  1  0
  7  8  1  0
  8  9  1  0
  9 10  1  0
  9 11  2  0
  2 12  1  0
 12 13  2  0
 13 14  1  0
 14 15  2  0
 15 16  1  0
 16 17  1  0
 17 18  2  0
 18 19  1  0
 19 20  1  0
 20 21  1  0
 21 22  1  0
 22 23  1  0
M  END
>  <cdk:Title>  (591) 
8-Hete

>  <1A2>  (591) 
N

>  <2A6>  (591) 
N

>  <2B6>  (591) 
N

>  <2C8>  (591) 
N

>  <2C9>  (591) 
N

>  <2C19>  (591) 
N

>  <2D6>  (591) 
N

>  <2E1>  (591) 
N

>  <3A4>  (591) 
N

>  <Citation>  (591) 
Nucleic Acids Res. 2018. Jan 4;46(D1):D608-17. PMID:29140435
Nucleic Acids Res. 2018 Jan 4;46(D1):D1074-D1082. PMID:29126136
Nucleic Acids Res., 45:D380-388 (2017).  PMID:27924025
Nucleic Acids Res. 2016 Jan 4;44(D1):D1202-13. PMID:26400175

>  <ROMol>  (591) 
<rdkit.Chem.rdchem.Mol object at 0x7c2905d8eb90>

>  <Drug_like>  (591) 
True

$$$$
Arachidonoyl serinol
     RDKit          2D

 27 26  0  0  0  0  0  0  0  0999 V2000
   14.1468   10.8945    0.0000 O   0  0  0  0  0  0  0  0  0  0  0  0
   14.8968   12.1936    0.0000 C   0  0  0  0  0  0  0  0  0  0  0  0
   14.1468   13.4926    0.0000 N   0  0  0  0  0  0  0  0  0  0  0  0
   12.6468   13.4926    0.0000 C   0  0  0  0  0  0  0  0  0  0  0  0
   11.8968   14.7916    0.0000 C   0  0  0  0  0  0  0  0  0  0  0  0
   10.3968   14.7916    0.0000 O   0  0  0  0  0  0  0  0  0  0  0  0
   11.2372   12.9796    0.0000 C   0  0  0  0  0  0  0  0  0  0  0  0
   10.0882   13.9437    0.0000 O   0  0  0  0  0  0  0  0  0  0  0  0
   16.3968   12.1936    0.0000 C   0  0  0  0  0  0  0  0  0  0  0  0
   17.1468   10.8945    0.0000 C   0  0  0  0  0  0  0  0  0  0  0  0
   18.6468   10.8945    0.0000 C   0  0  0  0  0  0  0  0  0  0  0  0
   19.3968   12.1936    0.0000 C   0  0  0  0  0  0  0  0  0  0  0  0
   20.8968   12.1936    0.0000 C   0  0  0  0  0  0  0  0  0  0  0  0
   21.6468   10.8945    0.0000 C   0  0  0  0  0  0  0  0  0  0  0  0
   20.8968    9.5955    0.0000 C   0  0  0  0  0  0  0  0  0  0  0  0
   21.6468    8.2964    0.0000 C   0  0  0  0  0  0  0  0  0  0  0  0
   23.1468    8.2964    0.0000 C   0  0  0  0  0  0  0  0  0  0  0  0
   23.8968    9.5955    0.0000 C   0  0  0  0  0  0  0  0  0  0  0  0
   25.3968    9.5955    0.0000 C   0  0  0  0  0  0  0  0  0  0  0  0
   26.1468    8.2964    0.0000 C   0  0  0  0  0  0  0  0  0  0  0  0
   25.3968    6.9974    0.0000 C   0  0  0  0  0  0  0  0  0  0  0  0
   26.6268    4.8670    0.0000 C   0  0  0  0  0  0  0  0  0  0  0  0
   29.0868    4.8670    0.0000 C   0  0  0  0  0  0  0  0  0  0  0  0
   30.3168    6.9974    0.0000 C   0  0  0  0  0  0  0  0  0  0  0  0
   32.2968    6.9974    0.0000 C   0  0  0  0  0  0  0  0  0  0  0  0
   33.0468    8.2964    0.0000 C   0  0  0  0  0  0  0  0  0  0  0  0
   34.5468    8.2964    0.0000 C   0  0  0  0  0  0  0  0  0  0  0  0
  1  2  2  0
  2  3  1  0
  3  4  1  0
  4  5  1  0
  5  6  1  0
  4  7  1  0
  7  8  1  0
  2  9  1  0
  9 10  1  0
 10 11  1  0
 11 12  1  0
 12 13  2  0
 13 14  1  0
 14 15  1  0
 15 16  2  0
 16 17  1  0
 17 18  1  0
 18 19  2  0
 19 20  1  0
 20 21  1  0
 21 22  2  0
 22 23  1  0
 23 24  1  0
 24 25  1  0
 25 26  1  0
 26 27  1  0
M  END
>  <cdk:Title>  (592) 
Arachidonoyl serinol

>  <1A2>  (592) 
N

>  <2A6>  (592) 
N

>  <2B6>  (592) 
N

>  <2C8>  (592) 
N

>  <2C9>  (592) 
N

>  <2C19>  (592) 
N

>  <2D6>  (592) 
N

>  <2E1>  (592) 
N

>  <3A4>  (592) 
N

>  <Citation>  (592) 
Nucleic Acids Res. 2018. Jan 4;46(D1):D608-17. PMID:29140435
Nucleic Acids Res. 2018 Jan 4;46(D1):D1074-D1082. PMID:29126136
Nucleic Acids Res., 45:D380-388 (2017).  PMID:27924025
Nucleic Acids Res. 2016 Jan 4;44(D1):D1202-13. PMID:26400175

>  <ROMol>  (592) 
<rdkit.Chem.rdchem.Mol object at 0x7c2905d8ec00>

>  <Drug_like>  (592) 
True

$$$$
Petroselinate
     RDKit          2D

 20 19  0  0  0  0  0  0  0  0999 V2000
   18.4843    4.4351    0.0000 O   0  0  0  0  0  0  0  0  0  0  0  0
   17.7343    3.1361    0.0000 C   0  0  0  0  0  0  0  0  0  0  0  0
   18.4843    1.8370    0.0000 O   0  0  0  0  0  0  0  0  0  0  0  0
   16.2343    3.1361    0.0000 C   0  0  0  0  0  0  0  0  0  0  0  0
   15.4843    1.8370    0.0000 C   0  0  0  0  0  0  0  0  0  0  0  0
   13.5043    1.8370    0.0000 C   0  0  0  0  0  0  0  0  0  0  0  0
   12.2743   -0.2934    0.0000 C   0  0  0  0  0  0  0  0  0  0  0  0
    9.3343   -0.2934    0.0000 C   0  0  0  0  0  0  0  0  0  0  0  0
    8.5843    1.0056    0.0000 C   0  0  0  0  0  0  0  0  0  0  0  0
    9.3343    2.3047    0.0000 C   0  0  0  0  0  0  0  0  0  0  0  0
    8.5843    3.6037    0.0000 C   0  0  0  0  0  0  0  0  0  0  0  0
    6.6043    3.6037    0.0000 C   0  0  0  0  0  0  0  0  0  0  0  0
    5.6143    5.3184    0.0000 C   0  0  0  0  0  0  0  0  0  0  0  0
    3.6343    5.3184    0.0000 C   0  0  0  0  0  0  0  0  0  0  0  0
    2.6443    7.0332    0.0000 C   0  0  0  0  0  0  0  0  0  0  0  0
    0.6643    7.0332    0.0000 C   0  0  0  0  0  0  0  0  0  0  0  0
   -0.3257    8.7479    0.0000 C   0  0  0  0  0  0  0  0  0  0  0  0
   -2.3057    8.7479    0.0000 C   0  0  0  0  0  0  0  0  0  0  0  0
   -3.0557   10.0469    0.0000 C   0  0  0  0  0  0  0  0  0  0  0  0
   -4.5557   10.0469    0.0000 C   0  0  0  0  0  0  0  0  0  0  0  0
  1  2  1  0
  2  3  2  0
  2  4  1  0
  4  5  1  0
  5  6  1  0
  6  7  1  0
  7  8  1  0
  8  9  2  0
  9 10  1  0
 10 11  1  0
 11 12  1  0
 12 13  1  0
 13 14  1  0
 14 15  1  0
 15 16  1  0
 16 17  1  0
 17 18  1  0
 18 19  1  0
 19 20  1  0
M  CHG  1   1  -1
M  END
>  <cdk:Title>  (593) 
Petroselinate

>  <1A2>  (593) 
N

>  <2A6>  (593) 
N

>  <2B6>  (593) 
N

>  <2C8>  (593) 
N

>  <2C9>  (593) 
N

>  <2C19>  (593) 
N

>  <2D6>  (593) 
N

>  <2E1>  (593) 
N

>  <3A4>  (593) 
N

>  <Citation>  (593) 
Nucleic Acids Res. 2018. Jan 4;46(D1):D608-17. PMID:29140435
Nucleic Acids Res. 2018 Jan 4;46(D1):D1074-D1082. PMID:29126136
Nucleic Acids Res., 45:D380-388 (2017).  PMID:27924025
Nucleic Acids Res. 2016 Jan 4;44(D1):D1202-13. PMID:26400175

>  <ROMol>  (593) 
<rdkit.Chem.rdchem.Mol object at 0x7c2905d8ec70>

>  <Drug_like>  (593) 
True

$$$$
Norhydromorphone
     RDKit          2D

 20 24  0  0  0  0  0  0  0  0999 V2000
   -4.6532   -1.3574    0.0000 O   0  0  0  0  0  0  0  0  0  0  0  0
   -3.1532   -2.9574    0.0000 C   0  0  0  0  0  0  0  0  0  0  0  0
   -1.8532   -2.2174    0.0000 C   0  0  0  0  0  0  0  0  0  0  0  0
   -0.5632   -2.9774    0.0000 C   0  0  0  0  0  0  0  0  0  0  0  0
    0.7368   -2.2274    0.0000 C   0  0  0  0  0  0  0  0  0  0  0  0
    2.0368   -2.9874    0.0000 N   0  0  0  0  0  0  0  0  0  0  0  0
    2.0268   -1.4674    0.0000 C   0  0  0  0  0  0  0  0  0  0  0  0
   -0.5532   -1.4674    0.0000 C   0  0  0  0  0  0  0  0  0  0  0  0
    0.7468   -0.7374    0.0000 C   0  0  0  0  0  0  0  0  0  0  0  0
   -0.5632    0.0226    0.0000 C   0  0  0  0  0  0  0  0  0  0  0  0
   -1.8632   -0.7274    0.0000 C   0  0  0  0  0  0  0  0  0  0  0  0
   -3.1632    0.0226    0.0000 C   0  0  0  0  0  0  0  0  0  0  0  0
   -3.1632    1.5226    0.0000 C   0  0  0  0  0  0  0  0  0  0  0  0
   -4.4621    2.2728    0.0000 O   0  0  0  0  0  0  0  0  0  0  0  0
   -1.8632    2.2726    0.0000 C   0  0  0  0  0  0  0  0  0  0  0  0
   -0.5632    1.5226    0.0000 C   0  0  0  0  0  0  0  0  0  0  0  0
   -0.5732   -4.4674    0.0000 C   0  0  0  0  0  0  0  0  0  0  0  0
   -1.8832   -5.2074    0.0000 C   0  0  0  0  0  0  0  0  0  0  0  0
   -3.1732   -4.4374    0.0000 C   0  0  0  0  0  0  0  0  0  0  0  0
   -4.4826   -5.1691    0.0000 O   0  0  0  0  0  0  0  0  0  0  0  0
  1  2  1  0
  2  3  1  0
  3  4  1  0
  4  5  1  0
  5  6  1  0
  6  7  1  0
  7  8  1  0
  3  8  1  1
  5  9  1  0
  9 10  1  0
 10 11  2  0
  3 11  1  0
 11 12  1  0
  1 12  1  0
 12 13  2  0
 13 14  1  0
 13 15  1  0
 15 16  2  0
 10 16  1  0
  4 17  1  0
 17 18  1  0
 18 19  1  0
  2 19  1  0
 19 20  2  0
M  END
>  <cdk:Title>  (594) 
Norhydromorphone

>  <1A2>  (594) 
N

>  <2A6>  (594) 
N

>  <2B6>  (594) 
N

>  <2C8>  (594) 
N

>  <2C9>  (594) 
N

>  <2C19>  (594) 
N

>  <2D6>  (594) 
N

>  <2E1>  (594) 
N

>  <3A4>  (594) 
N

>  <Citation>  (594) 
Nucleic Acids Res. 2018. Jan 4;46(D1):D608-17. PMID:29140435
Nucleic Acids Res. 2018 Jan 4;46(D1):D1074-D1082. PMID:29126136
Nucleic Acids Res., 45:D380-388 (2017).  PMID:27924025
Nucleic Acids Res. 2016 Jan 4;44(D1):D1202-13. PMID:26400175

>  <ROMol>  (594) 
<rdkit.Chem.rdchem.Mol object at 0x7c2905d8ece0>

>  <Drug_like>  (594) 
True

$$$$
2_4_6_8-Tridecatetrayne
     RDKit          2D

 13 12  0  0  0  0  0  0  0  0999 V2000
    0.7492    4.0843    0.0000 C   0  0  0  0  0  0  0  0  0  0  0  0
    1.4992    2.7852    0.0000 C   0  0  0  0  0  0  0  0  0  0  0  0
    3.4792    2.7852    0.0000 C   0  0  0  0  0  0  0  0  0  0  0  0
    4.2292    1.4862    0.0000 C   0  0  0  0  0  0  0  0  0  0  0  0
    5.7292    1.4862    0.0000 C   0  0  0  0  0  0  0  0  0  0  0  0
    7.2292    1.4862    0.0000 C   0  0  0  0  0  0  0  0  0  0  0  0
    8.7292    1.4862    0.0000 C   0  0  0  0  0  0  0  0  0  0  0  0
   10.2292    1.4862    0.0000 C   0  0  0  0  0  0  0  0  0  0  0  0
   11.7292    1.4862    0.0000 C   0  0  0  0  0  0  0  0  0  0  0  0
   13.2292    1.4862    0.0000 C   0  0  0  0  0  0  0  0  0  0  0  0
   14.7292    1.4862    0.0000 C   0  0  0  0  0  0  0  0  0  0  0  0
   16.2292    1.4862    0.0000 C   0  0  0  0  0  0  0  0  0  0  0  0
   17.7292    1.4862    0.0000 C   0  0  0  0  0  0  0  0  0  0  0  0
  1  2  1  0
  2  3  1  0
  3  4  1  0
  4  5  1  0
  5  6  3  0
  6  7  1  0
  7  8  3  0
  8  9  1  0
  9 10  3  0
 10 11  1  0
 11 12  3  0
 12 13  1  0
M  END
>  <cdk:Title>  (595) 
2_4_6_8-Tridecatetrayne

>  <1A2>  (595) 
N

>  <2A6>  (595) 
N

>  <2B6>  (595) 
N

>  <2C8>  (595) 
N

>  <2C9>  (595) 
N

>  <2C19>  (595) 
N

>  <2D6>  (595) 
N

>  <2E1>  (595) 
N

>  <3A4>  (595) 
N

>  <Citation>  (595) 
Nucleic Acids Res. 2018. Jan 4;46(D1):D608-17. PMID:29140435
Nucleic Acids Res. 2018 Jan 4;46(D1):D1074-D1082. PMID:29126136
Nucleic Acids Res., 45:D380-388 (2017).  PMID:27924025
Nucleic Acids Res. 2016 Jan 4;44(D1):D1202-13. PMID:26400175

>  <ROMol>  (595) 
<rdkit.Chem.rdchem.Mol object at 0x7c2905d8edc0>

>  <Drug_like>  (595) 
True

$$$$
Ethyl glucuronide
     RDKit          2D

 15 15  0  0  0  0  0  0  0  0999 V2000
   -0.0100    1.7700    0.0000 O   0  0  0  0  0  0  0  0  0  0  0  0
   -1.3100    1.0200    0.0000 C   0  0  0  0  0  0  0  0  0  0  0  0
   -1.3100   -0.4700    0.0000 C   0  0  0  0  0  0  0  0  0  0  0  0
   -0.0100   -1.2300    0.0000 C   0  0  0  0  0  0  0  0  0  0  0  0
   -0.9788   -2.3752    0.0000 O   0  0  0  0  0  0  0  0  0  0  0  0
    1.3100   -0.4700    0.0000 C   0  0  0  0  0  0  0  0  0  0  0  0
    1.8219   -1.8799    0.0000 O   0  0  0  0  0  0  0  0  0  0  0  0
    1.3100    1.0200    0.0000 C   0  0  0  0  0  0  0  0  0  0  0  0
    2.7878    0.7629    0.0000 O   0  0  0  0  0  0  0  0  0  0  0  0
    4.0570    2.2826    0.0000 C   0  0  0  0  0  0  0  0  0  0  0  0
    5.5348    2.0255    0.0000 C   0  0  0  0  0  0  0  0  0  0  0  0
   -2.7867   -0.2069    0.0000 O   0  0  0  0  0  0  0  0  0  0  0  0
   -1.8227    2.4296    0.0000 C   0  0  0  0  0  0  0  0  0  0  0  0
   -3.2999    2.6904    0.0000 O   0  0  0  0  0  0  0  0  0  0  0  0
   -0.8583    3.5785    0.0000 O   0  0  0  0  0  0  0  0  0  0  0  0
  1  2  1  0
  2  3  1  0
  3  4  1  0
  4  5  1  0
  4  6  1  0
  6  7  1  0
  6  8  1  0
  1  8  1  0
  8  9  1  0
  9 10  1  0
 10 11  1  0
  3 12  1  0
  2 13  1  0
 13 14  1  0
 13 15  2  0
M  END
>  <cdk:Title>  (596) 
Ethyl glucuronide

>  <1A2>  (596) 
N

>  <2A6>  (596) 
N

>  <2B6>  (596) 
N

>  <2C8>  (596) 
N

>  <2C9>  (596) 
N

>  <2C19>  (596) 
N

>  <2D6>  (596) 
N

>  <2E1>  (596) 
N

>  <3A4>  (596) 
N

>  <Citation>  (596) 
Nucleic Acids Res. 2018. Jan 4;46(D1):D608-17. PMID:29140435
Nucleic Acids Res. 2018 Jan 4;46(D1):D1074-D1082. PMID:29126136
Nucleic Acids Res., 45:D380-388 (2017).  PMID:27924025
Nucleic Acids Res. 2016 Jan 4;44(D1):D1202-13. PMID:26400175

>  <ROMol>  (596) 
<rdkit.Chem.rdchem.Mol object at 0x7c2905d8ee30>

>  <Drug_like>  (596) 
True

$$$$
(-)-Pinocampheol
     RDKit          2D

 11 12  0  0  0  0  0  0  0  0999 V2000
    1.0858    0.5690    0.0000 C   0  0  0  0  0  0  0  0  0  0  0  0
   -0.4042    0.5490    0.0000 C   0  0  0  0  0  0  0  0  0  0  0  0
   -1.6042   -0.7510    0.0000 C   0  0  0  0  0  0  0  0  0  0  0  0
   -3.3712    0.9605    0.0000 C   0  0  0  0  0  0  0  0  0  0  0  0
   -3.3575   -2.4765    0.0000 C   0  0  0  0  0  0  0  0  0  0  0  0
   -0.3942   -2.0410    0.0000 C   0  0  0  0  0  0  0  0  0  0  0  0
    1.1058   -2.0310    0.0000 C   0  0  0  0  0  0  0  0  0  0  0  0
    1.8458   -0.7210    0.0000 C   0  0  0  0  0  0  0  0  0  0  0  0
    3.0037   -1.6746    0.0000 O   0  0  0  0  0  0  0  0  0  0  0  0
   -1.1542   -0.7510    0.0000 C   0  0  0  0  0  0  0  0  0  0  0  0
    3.8380    1.6031    0.0000 C   0  0  0  0  0  0  0  0  0  0  0  0
  1  2  1  0
  2  3  1  0
  3  4  1  0
  3  5  1  0
  3  6  1  0
  6  7  1  0
  7  8  1  0
  1  8  1  0
  8  9  1  0
  6 10  1  0
  2 10  1  0
  1 11  1  0
M  END
>  <cdk:Title>  (597) 
(-)-Pinocampheol

>  <1A2>  (597) 
N

>  <2A6>  (597) 
N

>  <2B6>  (597) 
N

>  <2C8>  (597) 
N

>  <2C9>  (597) 
N

>  <2C19>  (597) 
N

>  <2D6>  (597) 
N

>  <2E1>  (597) 
N

>  <3A4>  (597) 
N

>  <Citation>  (597) 
Nucleic Acids Res. 2018. Jan 4;46(D1):D608-17. PMID:29140435
Nucleic Acids Res. 2018 Jan 4;46(D1):D1074-D1082. PMID:29126136
Nucleic Acids Res., 45:D380-388 (2017).  PMID:27924025
Nucleic Acids Res. 2016 Jan 4;44(D1):D1202-13. PMID:26400175

>  <ROMol>  (597) 
<rdkit.Chem.rdchem.Mol object at 0x7c2905d8ef10>

>  <Drug_like>  (597) 
True

$$$$
Dihydroxyfumaric acid
     RDKit          2D

 10  9  0  0  0  0  0  0  0  0999 V2000
    3.8971   -2.2500    0.0000 O   0  0  0  0  0  0  0  0  0  0  0  0
    3.8971   -0.7500    0.0000 C   0  0  0  0  0  0  0  0  0  0  0  0
    5.1962   -0.0000    0.0000 C   0  0  0  0  0  0  0  0  0  0  0  0
    5.1962    1.5000    0.0000 O   0  0  0  0  0  0  0  0  0  0  0  0
    6.4952   -0.7500    0.0000 C   0  0  0  0  0  0  0  0  0  0  0  0
    7.7942   -0.0000    0.0000 O   0  0  0  0  0  0  0  0  0  0  0  0
    6.4952   -2.2500    0.0000 O   0  0  0  0  0  0  0  0  0  0  0  0
    2.5981   -0.0000    0.0000 C   0  0  0  0  0  0  0  0  0  0  0  0
    1.2990   -0.7500    0.0000 O   0  0  0  0  0  0  0  0  0  0  0  0
    2.5981    1.5000    0.0000 O   0  0  0  0  0  0  0  0  0  0  0  0
  1  2  1  0
  2  3  1  0
  3  4  2  0
  3  5  1  0
  5  6  1  0
  5  7  2  0
  2  8  2  3
  8  9  1  0
  8 10  1  0
M  END
>  <cdk:Title>  (598) 
Dihydroxyfumaric acid

>  <1A2>  (598) 
N

>  <2A6>  (598) 
N

>  <2B6>  (598) 
N

>  <2C8>  (598) 
N

>  <2C9>  (598) 
N

>  <2C19>  (598) 
N

>  <2D6>  (598) 
N

>  <2E1>  (598) 
N

>  <3A4>  (598) 
N

>  <Citation>  (598) 
Nucleic Acids Res. 2018. Jan 4;46(D1):D608-17. PMID:29140435
Nucleic Acids Res. 2018 Jan 4;46(D1):D1074-D1082. PMID:29126136
Nucleic Acids Res., 45:D380-388 (2017).  PMID:27924025
Nucleic Acids Res. 2016 Jan 4;44(D1):D1202-13. PMID:26400175

>  <ROMol>  (598) 
<rdkit.Chem.rdchem.Mol object at 0x7c2905d8f060>

>  <Drug_like>  (598) 
True

$$$$
R-6-Hydroxywarfarin
     RDKit          2D

 24 26  0  0  0  0  0  0  0  0999 V2000
    3.7304    4.1740    0.0000 O   0  0  0  0  0  0  0  0  0  0  0  0
    4.6955    3.0246    0.0000 C   0  0  0  0  0  0  0  0  0  0  0  0
    6.6454    3.3687    0.0000 O   0  0  0  0  0  0  0  0  0  0  0  0
    4.1825    1.6150    0.0000 C   0  0  0  0  0  0  0  0  0  0  0  0
    6.0719   -0.6375    0.0000 C   0  0  0  0  0  0  0  0  0  0  0  0
    7.3711    0.1123    0.0000 C   0  0  0  0  0  0  0  0  0  0  0  0
    8.6700   -0.6379    0.0000 C   0  0  0  0  0  0  0  0  0  0  0  0
    8.6697   -2.1379    0.0000 O   0  0  0  0  0  0  0  0  0  0  0  0
    9.9691    0.1119    0.0000 C   0  0  0  0  0  0  0  0  0  0  0  0
    4.1817   -2.8893    0.0000 C   0  0  0  0  0  0  0  0  0  0  0  0
    4.6953   -4.2996    0.0000 C   0  0  0  0  0  0  0  0  0  0  0  0
    3.7309   -5.4485    0.0000 C   0  0  0  0  0  0  0  0  0  0  0  0
    2.2530   -5.1871    0.0000 C   0  0  0  0  0  0  0  0  0  0  0  0
    1.7395   -3.7769    0.0000 C   0  0  0  0  0  0  0  0  0  0  0  0
    2.7038   -2.6280    0.0000 C   0  0  0  0  0  0  0  0  0  0  0  0
    2.7044    1.3549    0.0000 C   0  0  0  0  0  0  0  0  0  0  0  0
    2.1913   -0.0547    0.0000 O   0  0  0  0  0  0  0  0  0  0  0  0
    1.7393    2.5043    0.0000 C   0  0  0  0  0  0  0  0  0  0  0  0
    2.2523    3.9138    0.0000 C   0  0  0  0  0  0  0  0  0  0  0  0
    1.2872    5.0632    0.0000 C   0  0  0  0  0  0  0  0  0  0  0  0
   -0.1909    4.8031    0.0000 C   0  0  0  0  0  0  0  0  0  0  0  0
   -0.7039    3.3935    0.0000 C   0  0  0  0  0  0  0  0  0  0  0  0
    0.2611    2.2441    0.0000 C   0  0  0  0  0  0  0  0  0  0  0  0
   -2.1811    3.1328    0.0000 O   0  0  0  0  0  0  0  0  0  0  0  0
  1  2  1  0
  2  3  1  0
  2  4  2  0
  4  5  1  0
  5  6  1  0
  6  7  1  0
  7  8  2  0
  7  9  1  0
  5 10  1  0
 10 11  2  0
 11 12  1  0
 12 13  2  0
 13 14  1  0
 14 15  2  0
 10 15  1  0
  4 16  1  0
 16 17  2  0
 16 18  1  0
 18 19  2  0
  1 19  1  0
 19 20  1  0
 20 21  2  0
 21 22  1  0
 22 23  2  0
 18 23  1  0
 22 24  1  0
M  END
>  <cdk:Title>  (599) 
R-6-Hydroxywarfarin

>  <1A2>  (599) 
N

>  <2A6>  (599) 
N

>  <2B6>  (599) 
N

>  <2C8>  (599) 
N

>  <2C9>  (599) 
N

>  <2C19>  (599) 
N

>  <2D6>  (599) 
N

>  <2E1>  (599) 
N

>  <3A4>  (599) 
N

>  <Citation>  (599) 
Nucleic Acids Res. 2018. Jan 4;46(D1):D608-17. PMID:29140435
Nucleic Acids Res. 2018 Jan 4;46(D1):D1074-D1082. PMID:29126136
Nucleic Acids Res., 45:D380-388 (2017).  PMID:27924025
Nucleic Acids Res. 2016 Jan 4;44(D1):D1202-13. PMID:26400175

>  <ROMol>  (599) 
<rdkit.Chem.rdchem.Mol object at 0x7c2905d8f0d0>

>  <Drug_like>  (599) 
True

$$$$
Benzyl propionate
     RDKit          2D

 12 12  0  0  0  0  0  0  0  0999 V2000
   -1.6215    2.9330    0.0000 O   0  0  0  0  0  0  0  0  0  0  0  0
   -0.1215    2.9330    0.0000 C   0  0  0  0  0  0  0  0  0  0  0  0
    0.6285    1.6340    0.0000 C   0  0  0  0  0  0  0  0  0  0  0  0
    2.1293    1.6345    0.0000 C   0  0  0  0  0  0  0  0  0  0  0  0
    2.8793    0.3354    0.0000 C   0  0  0  0  0  0  0  0  0  0  0  0
    2.1285   -0.9641    0.0000 C   0  0  0  0  0  0  0  0  0  0  0  0
    0.6277   -0.9646    0.0000 C   0  0  0  0  0  0  0  0  0  0  0  0
   -0.1223    0.3345    0.0000 C   0  0  0  0  0  0  0  0  0  0  0  0
   -2.3715    4.2321    0.0000 C   0  0  0  0  0  0  0  0  0  0  0  0
   -3.8715    4.2321    0.0000 C   0  0  0  0  0  0  0  0  0  0  0  0
   -4.6215    5.5311    0.0000 C   0  0  0  0  0  0  0  0  0  0  0  0
   -1.6215    5.5311    0.0000 O   0  0  0  0  0  0  0  0  0  0  0  0
  1  2  1  0
  2  3  1  0
  3  4  2  0
  4  5  1  0
  5  6  2  0
  6  7  1  0
  7  8  2  0
  3  8  1  0
  1  9  1  0
  9 10  1  0
 10 11  1  0
  9 12  2  0
M  END
>  <cdk:Title>  (600) 
Benzyl propionate

>  <1A2>  (600) 
N

>  <2A6>  (600) 
N

>  <2B6>  (600) 
N

>  <2C8>  (600) 
N

>  <2C9>  (600) 
N

>  <2C19>  (600) 
N

>  <2D6>  (600) 
N

>  <2E1>  (600) 
N

>  <3A4>  (600) 
N

>  <Citation>  (600) 
Nucleic Acids Res. 2018. Jan 4;46(D1):D608-17. PMID:29140435
Nucleic Acids Res. 2018 Jan 4;46(D1):D1074-D1082. PMID:29126136
Nucleic Acids Res., 45:D380-388 (2017).  PMID:27924025
Nucleic Acids Res. 2016 Jan 4;44(D1):D1202-13. PMID:26400175

>  <ROMol>  (600) 
<rdkit.Chem.rdchem.Mol object at 0x7c2905d8f140>

>  <Drug_like>  (600) 
True

$$$$
UNII-K6390PB417 component SXJKRFLZGRFPBD-jarntupdsa-N
     RDKit          2D

 13 12  0  0  0  0  0  0  0  0999 V2000
   10.3923    1.5000    0.0000 O   0  0  0  0  0  0  0  0  0  0  0  0
   10.3923   -0.0000    0.0000 C   0  0  0  0  0  0  0  0  0  0  0  0
    9.0933   -0.7500    0.0000 O   0  0  0  0  0  0  0  0  0  0  0  0
    7.7942   -0.0000    0.0000 C   0  0  0  0  0  0  0  0  0  0  0  0
    6.4952   -0.7500    0.0000 C   0  0  0  0  0  0  0  0  0  0  0  0
    5.1962   -0.0000    0.0000 C   0  0  0  0  0  0  0  0  0  0  0  0
    3.8971   -0.7500    0.0000 C   0  0  0  0  0  0  0  0  0  0  0  0
    2.5981   -0.0000    0.0000 C   0  0  0  0  0  0  0  0  0  0  0  0
    1.2990   -0.7500    0.0000 C   0  0  0  0  0  0  0  0  0  0  0  0
   11.6913   -0.7500    0.0000 C   0  0  0  0  0  0  0  0  0  0  0  0
   10.7272   -1.8991    0.0000 C   0  0  0  0  0  0  0  0  0  0  0  0
   12.9904   -0.0000    0.0000 C   0  0  0  0  0  0  0  0  0  0  0  0
   14.2894   -0.7500    0.0000 C   0  0  0  0  0  0  0  0  0  0  0  0
  1  2  2  0
  2  3  1  0
  3  4  1  0
  4  5  1  0
  5  6  2  0
  6  7  1  0
  7  8  1  0
  8  9  1  0
  2 10  1  0
 10 11  1  0
 10 12  1  0
 12 13  1  0
M  END
>  <cdk:Title>  (601) 
UNII-K6390PB417 component SXJKRFLZGRFPBD-jarntupdsa-N

>  <1A2>  (601) 
N

>  <2A6>  (601) 
N

>  <2B6>  (601) 
N

>  <2C8>  (601) 
N

>  <2C9>  (601) 
N

>  <2C19>  (601) 
N

>  <2D6>  (601) 
N

>  <2E1>  (601) 
N

>  <3A4>  (601) 
N

>  <Citation>  (601) 
Nucleic Acids Res. 2018. Jan 4;46(D1):D608-17. PMID:29140435
Nucleic Acids Res. 2018 Jan 4;46(D1):D1074-D1082. PMID:29126136
Nucleic Acids Res., 45:D380-388 (2017).  PMID:27924025
Nucleic Acids Res. 2016 Jan 4;44(D1):D1202-13. PMID:26400175

>  <ROMol>  (601) 
<rdkit.Chem.rdchem.Mol object at 0x7c2905d8f1b0>

>  <Drug_like>  (601) 
True

$$$$
(+)-1(10)_4-Cadinadiene
     RDKit          2D

 15 16  0  0  0  0  0  0  0  0999 V2000
    3.5725    2.9534    0.0000 C   0  0  0  0  0  0  0  0  0  0  0  0
    4.8725    2.2034    0.0000 C   0  0  0  0  0  0  0  0  0  0  0  0
    4.8725    0.7034    0.0000 C   0  0  0  0  0  0  0  0  0  0  0  0
    3.5725   -0.0466    0.0000 C   0  0  0  0  0  0  0  0  0  0  0  0
    2.2725    0.7034    0.0000 C   0  0  0  0  0  0  0  0  0  0  0  0
    0.9725   -0.0466    0.0000 C   0  0  0  0  0  0  0  0  0  0  0  0
   -0.3275    0.7034    0.0000 C   0  0  0  0  0  0  0  0  0  0  0  0
   -0.3275    2.2034    0.0000 C   0  0  0  0  0  0  0  0  0  0  0  0
    0.9725    2.9534    0.0000 C   0  0  0  0  0  0  0  0  0  0  0  0
    2.2725    2.2034    0.0000 C   0  0  0  0  0  0  0  0  0  0  0  0
   -2.0421   -0.2869    0.0000 C   0  0  0  0  0  0  0  0  0  0  0  0
    1.6829   -2.2990    0.0000 C   0  0  0  0  0  0  0  0  0  0  0  0
    0.2057   -2.0387    0.0000 C   0  0  0  0  0  0  0  0  0  0  0  0
    3.0925   -2.8119    0.0000 C   0  0  0  0  0  0  0  0  0  0  0  0
    3.5725    4.9334    0.0000 C   0  0  0  0  0  0  0  0  0  0  0  0
  1  2  1  0
  2  3  1  0
  3  4  1  0
  4  5  1  0
  5  6  1  0
  6  7  2  0
  7  8  1  0
  8  9  1  0
  9 10  1  0
  1 10  2  0
  5 10  1  0
  7 11  1  0
  4 12  1  0
 12 13  1  0
 12 14  1  0
  1 15  1  0
M  END
>  <cdk:Title>  (602) 
(+)-1(10)_4-Cadinadiene

>  <1A2>  (602) 
N

>  <2A6>  (602) 
N

>  <2B6>  (602) 
N

>  <2C8>  (602) 
N

>  <2C9>  (602) 
N

>  <2C19>  (602) 
N

>  <2D6>  (602) 
N

>  <2E1>  (602) 
N

>  <3A4>  (602) 
N

>  <Citation>  (602) 
Nucleic Acids Res. 2018. Jan 4;46(D1):D608-17. PMID:29140435
Nucleic Acids Res. 2018 Jan 4;46(D1):D1074-D1082. PMID:29126136
Nucleic Acids Res., 45:D380-388 (2017).  PMID:27924025
Nucleic Acids Res. 2016 Jan 4;44(D1):D1202-13. PMID:26400175

>  <ROMol>  (602) 
<rdkit.Chem.rdchem.Mol object at 0x7c2905d8f370>

>  <Drug_like>  (602) 
True

$$$$
SCHEMBL8954842
     RDKit          2D

 13 12  0  0  0  0  0  0  0  0999 V2000
   15.2799   -0.1218    0.0000 O   0  0  0  0  0  0  0  0  0  0  0  0
   13.9809   -0.8718    0.0000 C   0  0  0  0  0  0  0  0  0  0  0  0
   13.9809   -2.3718    0.0000 O   0  0  0  0  0  0  0  0  0  0  0  0
   12.6818   -0.1218    0.0000 C   0  0  0  0  0  0  0  0  0  0  0  0
   11.3828   -0.8718    0.0000 C   0  0  0  0  0  0  0  0  0  0  0  0
   11.3828   -2.3718    0.0000 C   0  0  0  0  0  0  0  0  0  0  0  0
   11.4091    1.3949    0.0000 C   0  0  0  0  0  0  0  0  0  0  0  0
   16.5790   -0.8718    0.0000 C   0  0  0  0  0  0  0  0  0  0  0  0
   17.8780   -0.1218    0.0000 C   0  0  0  0  0  0  0  0  0  0  0  0
   19.1770   -0.8718    0.0000 C   0  0  0  0  0  0  0  0  0  0  0  0
   20.4761   -0.1218    0.0000 C   0  0  0  0  0  0  0  0  0  0  0  0
   20.4761    1.3782    0.0000 C   0  0  0  0  0  0  0  0  0  0  0  0
   19.1770    2.1282    0.0000 C   0  0  0  0  0  0  0  0  0  0  0  0
  1  2  1  0
  2  3  2  0
  2  4  1  0
  4  5  1  0
  5  6  1  0
  4  7  1  0
  1  8  1  0
  8  9  1  0
  9 10  1  0
 10 11  2  0
 11 12  1  0
 12 13  1  0
M  END
>  <cdk:Title>  (603) 
SCHEMBL8954842

>  <1A2>  (603) 
N

>  <2A6>  (603) 
N

>  <2B6>  (603) 
N

>  <2C8>  (603) 
N

>  <2C9>  (603) 
N

>  <2C19>  (603) 
N

>  <2D6>  (603) 
N

>  <2E1>  (603) 
N

>  <3A4>  (603) 
N

>  <Citation>  (603) 
Nucleic Acids Res. 2018. Jan 4;46(D1):D608-17. PMID:29140435
Nucleic Acids Res. 2018 Jan 4;46(D1):D1074-D1082. PMID:29126136
Nucleic Acids Res., 45:D380-388 (2017).  PMID:27924025
Nucleic Acids Res. 2016 Jan 4;44(D1):D1202-13. PMID:26400175

>  <ROMol>  (603) 
<rdkit.Chem.rdchem.Mol object at 0x7c2905d8f3e0>

>  <Drug_like>  (603) 
True

$$$$
S-Methyl propanethioate
     RDKit          2D

  6  5  0  0  0  0  0  0  0  0999 V2000
    6.4952   -0.7500    0.0000 C   0  0  0  0  0  0  0  0  0  0  0  0
    5.1962   -0.0000    0.0000 C   0  0  0  0  0  0  0  0  0  0  0  0
    3.8971   -0.7500    0.0000 C   0  0  0  0  0  0  0  0  0  0  0  0
    3.8971   -2.2500    0.0000 O   0  0  0  0  0  0  0  0  0  0  0  0
    2.5981   -0.0000    0.0000 S   0  0  0  0  0  0  0  0  0  0  0  0
    1.2990   -0.7500    0.0000 C   0  0  0  0  0  0  0  0  0  0  0  0
  1  2  1  0
  2  3  1  0
  3  4  2  0
  3  5  1  0
  5  6  1  0
M  END
>  <cdk:Title>  (604) 
S-Methyl propanethioate

>  <1A2>  (604) 
N

>  <2A6>  (604) 
N

>  <2B6>  (604) 
N

>  <2C8>  (604) 
N

>  <2C9>  (604) 
N

>  <2C19>  (604) 
N

>  <2D6>  (604) 
N

>  <2E1>  (604) 
N

>  <3A4>  (604) 
N

>  <Citation>  (604) 
Nucleic Acids Res. 2018. Jan 4;46(D1):D608-17. PMID:29140435
Nucleic Acids Res. 2018 Jan 4;46(D1):D1074-D1082. PMID:29126136
Nucleic Acids Res., 45:D380-388 (2017).  PMID:27924025
Nucleic Acids Res. 2016 Jan 4;44(D1):D1202-13. PMID:26400175

>  <ROMol>  (604) 
<rdkit.Chem.rdchem.Mol object at 0x7c2905d8f450>

>  <Drug_like>  (604) 
True

$$$$
Alpha-Linolenoyl ethanolamide
     RDKit          2D

 23 22  0  0  0  0  0  0  0  0999 V2000
   28.1112  -10.7700    0.0000 C   0  0  0  0  0  0  0  0  0  0  0  0
   28.1112   -9.2700    0.0000 C   0  0  0  0  0  0  0  0  0  0  0  0
   29.4102   -8.5200    0.0000 C   0  0  0  0  0  0  0  0  0  0  0  0
   29.4102   -7.0200    0.0000 C   0  0  0  0  0  0  0  0  0  0  0  0
   28.1112   -6.2700    0.0000 C   0  0  0  0  0  0  0  0  0  0  0  0
   26.8121   -7.0200    0.0000 C   0  0  0  0  0  0  0  0  0  0  0  0
   24.6817   -5.7900    0.0000 C   0  0  0  0  0  0  0  0  0  0  0  0
   24.6817   -4.2900    0.0000 C   0  0  0  0  0  0  0  0  0  0  0  0
   23.3827   -3.5400    0.0000 C   0  0  0  0  0  0  0  0  0  0  0  0
   22.0836   -4.2900    0.0000 C   0  0  0  0  0  0  0  0  0  0  0  0
   22.0836   -5.7900    0.0000 C   0  0  0  0  0  0  0  0  0  0  0  0
   20.7846   -6.5400    0.0000 C   0  0  0  0  0  0  0  0  0  0  0  0
   19.4856   -5.7900    0.0000 C   0  0  0  0  0  0  0  0  0  0  0  0
   17.3551   -7.0200    0.0000 C   0  0  0  0  0  0  0  0  0  0  0  0
   16.0561   -6.2700    0.0000 C   0  0  0  0  0  0  0  0  0  0  0  0
   13.9257   -7.5000    0.0000 C   0  0  0  0  0  0  0  0  0  0  0  0
   12.6267   -6.7500    0.0000 C   0  0  0  0  0  0  0  0  0  0  0  0
   11.3276   -7.5000    0.0000 C   0  0  0  0  0  0  0  0  0  0  0  0
   11.3276   -9.0000    0.0000 O   0  0  0  0  0  0  0  0  0  0  0  0
   10.0286   -6.7500    0.0000 N   0  0  0  0  0  0  0  0  0  0  0  0
    8.7295   -7.5000    0.0000 C   0  0  0  0  0  0  0  0  0  0  0  0
    7.4305   -6.7500    0.0000 C   0  0  0  0  0  0  0  0  0  0  0  0
    6.1315   -7.5000    0.0000 O   0  0  0  0  0  0  0  0  0  0  0  0
  1  2  1  0
  2  3  1  0
  3  4  2  0
  4  5  1  0
  5  6  1  0
  6  7  2  0
  7  8  1  0
  8  9  1  0
  9 10  2  0
 10 11  1  0
 11 12  1  0
 12 13  1  0
 13 14  1  0
 14 15  1  0
 15 16  1  0
 16 17  1  0
 17 18  1  0
 18 19  2  0
 18 20  1  0
 20 21  1  0
 21 22  1  0
 22 23  1  0
M  END
>  <cdk:Title>  (605) 
Alpha-Linolenoyl ethanolamide

>  <1A2>  (605) 
N

>  <2A6>  (605) 
N

>  <2B6>  (605) 
N

>  <2C8>  (605) 
N

>  <2C9>  (605) 
N

>  <2C19>  (605) 
N

>  <2D6>  (605) 
N

>  <2E1>  (605) 
N

>  <3A4>  (605) 
N

>  <Citation>  (605) 
Nucleic Acids Res. 2018. Jan 4;46(D1):D608-17. PMID:29140435
Nucleic Acids Res. 2018 Jan 4;46(D1):D1074-D1082. PMID:29126136
Nucleic Acids Res., 45:D380-388 (2017).  PMID:27924025
Nucleic Acids Res. 2016 Jan 4;44(D1):D1202-13. PMID:26400175

>  <ROMol>  (605) 
<rdkit.Chem.rdchem.Mol object at 0x7c2905d8f4c0>

>  <Drug_like>  (605) 
True

$$$$
Nonyl acetate
     RDKit          2D

 13 12  0  0  0  0  0  0  0  0999 V2000
    1.4184    3.3633    0.0000 C   0  0  0  0  0  0  0  0  0  0  0  0
    2.9184    3.3633    0.0000 C   0  0  0  0  0  0  0  0  0  0  0  0
    3.6684    2.0643    0.0000 C   0  0  0  0  0  0  0  0  0  0  0  0
    6.1284    2.0643    0.0000 C   0  0  0  0  0  0  0  0  0  0  0  0
    6.8784    0.7652    0.0000 C   0  0  0  0  0  0  0  0  0  0  0  0
    9.3384    0.7652    0.0000 C   0  0  0  0  0  0  0  0  0  0  0  0
   10.3284   -0.9495    0.0000 C   0  0  0  0  0  0  0  0  0  0  0  0
   12.3084   -0.9495    0.0000 C   0  0  0  0  0  0  0  0  0  0  0  0
   13.0584   -2.2485    0.0000 C   0  0  0  0  0  0  0  0  0  0  0  0
   14.5584   -2.2485    0.0000 O   0  0  0  0  0  0  0  0  0  0  0  0
   15.3084   -3.5476    0.0000 C   0  0  0  0  0  0  0  0  0  0  0  0
   16.8084   -3.5476    0.0000 C   0  0  0  0  0  0  0  0  0  0  0  0
   14.5584   -4.8466    0.0000 O   0  0  0  0  0  0  0  0  0  0  0  0
  1  2  1  0
  2  3  1  0
  3  4  1  0
  4  5  1  0
  5  6  1  0
  6  7  1  0
  7  8  1  0
  8  9  1  0
  9 10  1  0
 10 11  1  0
 11 12  1  0
 11 13  2  0
M  END
>  <cdk:Title>  (606) 
Nonyl acetate

>  <1A2>  (606) 
N

>  <2A6>  (606) 
N

>  <2B6>  (606) 
N

>  <2C8>  (606) 
N

>  <2C9>  (606) 
N

>  <2C19>  (606) 
N

>  <2D6>  (606) 
N

>  <2E1>  (606) 
N

>  <3A4>  (606) 
N

>  <Citation>  (606) 
Nucleic Acids Res. 2018. Jan 4;46(D1):D608-17. PMID:29140435
Nucleic Acids Res. 2018 Jan 4;46(D1):D1074-D1082. PMID:29126136
Nucleic Acids Res., 45:D380-388 (2017).  PMID:27924025
Nucleic Acids Res. 2016 Jan 4;44(D1):D1202-13. PMID:26400175

>  <ROMol>  (606) 
<rdkit.Chem.rdchem.Mol object at 0x7c2905d8f530>

>  <Drug_like>  (606) 
True

$$$$
3_3-Dimethylhexane
     RDKit          2D

  8  7  0  0  0  0  0  0  0  0999 V2000
    0.0231    1.2205    0.0000 C   0  0  0  0  0  0  0  0  0  0  0  0
    1.3221    1.9705    0.0000 C   0  0  0  0  0  0  0  0  0  0  0  0
    3.8682    0.5005    0.0000 C   0  0  0  0  0  0  0  0  0  0  0  0
    5.5830    1.4905    0.0000 C   0  0  0  0  0  0  0  0  0  0  0  0
    7.4728    3.7426    0.0000 C   0  0  0  0  0  0  0  0  0  0  0  0
    4.6188    2.6395    0.0000 C   0  0  0  0  0  0  0  0  0  0  0  0
    6.8820    0.7405    0.0000 C   0  0  0  0  0  0  0  0  0  0  0  0
    6.8820   -0.7595    0.0000 C   0  0  0  0  0  0  0  0  0  0  0  0
  1  2  1  0
  2  3  1  0
  3  4  1  0
  4  5  1  0
  4  6  1  0
  4  7  1  0
  7  8  1  0
M  END
>  <cdk:Title>  (607) 
3_3-Dimethylhexane

>  <1A2>  (607) 
N

>  <2A6>  (607) 
N

>  <2B6>  (607) 
N

>  <2C8>  (607) 
N

>  <2C9>  (607) 
N

>  <2C19>  (607) 
N

>  <2D6>  (607) 
N

>  <2E1>  (607) 
N

>  <3A4>  (607) 
N

>  <Citation>  (607) 
Nucleic Acids Res. 2018. Jan 4;46(D1):D608-17. PMID:29140435
Nucleic Acids Res. 2018 Jan 4;46(D1):D1074-D1082. PMID:29126136
Nucleic Acids Res., 45:D380-388 (2017).  PMID:27924025
Nucleic Acids Res. 2016 Jan 4;44(D1):D1202-13. PMID:26400175

>  <ROMol>  (607) 
<rdkit.Chem.rdchem.Mol object at 0x7c2905d8f5a0>

>  <Drug_like>  (607) 
True

$$$$
Citrusinine I
     RDKit          2D

 22 24  0  0  0  0  0  0  0  0999 V2000
   -0.0000   -3.0000    0.0000 C   0  0  0  0  0  0  0  0  0  0  0  0
    0.0000   -1.5000    0.0000 N   0  0  0  0  0  0  0  0  0  0  0  0
    1.3000   -0.7500    0.0000 C   0  0  0  0  0  0  0  0  0  0  0  0
    1.3000    0.7500    0.0000 C   0  0  0  0  0  0  0  0  0  0  0  0
    2.6000    1.5000    0.0000 C   0  0  0  0  0  0  0  0  0  0  0  0
    3.9000    0.7500    0.0000 C   0  0  0  0  0  0  0  0  0  0  0  0
    3.9000   -0.7500    0.0000 C   0  0  0  0  0  0  0  0  0  0  0  0
    2.6000   -1.5000    0.0000 C   0  0  0  0  0  0  0  0  0  0  0  0
    2.6000   -3.0000    0.0000 O   0  0  0  0  0  0  0  0  0  0  0  0
    0.0000    1.5000    0.0000 C   0  0  0  0  0  0  0  0  0  0  0  0
   -1.3000    0.7500    0.0000 C   0  0  0  0  0  0  0  0  0  0  0  0
   -2.6000    1.5000    0.0000 C   0  0  0  0  0  0  0  0  0  0  0  0
   -3.9000    0.7500    0.0000 C   0  0  0  0  0  0  0  0  0  0  0  0
   -3.9000   -0.7500    0.0000 C   0  0  0  0  0  0  0  0  0  0  0  0
   -2.6000   -1.5000    0.0000 C   0  0  0  0  0  0  0  0  0  0  0  0
   -1.3000   -0.7500    0.0000 C   0  0  0  0  0  0  0  0  0  0  0  0
   -2.6000   -3.0000    0.0000 O   0  0  0  0  0  0  0  0  0  0  0  0
   -3.8990   -3.7500    0.0000 C   0  0  0  0  0  0  0  0  0  0  0  0
   -5.1989   -1.5002    0.0000 O   0  0  0  0  0  0  0  0  0  0  0  0
   -6.4981   -0.7504    0.0000 C   0  0  0  0  0  0  0  0  0  0  0  0
   -2.6000    3.0000    0.0000 O   0  0  0  0  0  0  0  0  0  0  0  0
    0.0000    3.0000    0.0000 O   0  0  0  0  0  0  0  0  0  0  0  0
  1  2  1  0
  2  3  1  0
  3  4  2  0
  4  5  1  0
  5  6  2  0
  6  7  1  0
  7  8  2  0
  3  8  1  0
  8  9  1  0
  4 10  1  0
 10 11  1  0
 11 12  2  0
 12 13  1  0
 13 14  2  0
 14 15  1  0
 15 16  2  0
 11 16  1  0
  2 16  1  0
 15 17  1  0
 17 18  1  0
 14 19  1  0
 19 20  1  0
 12 21  1  0
 10 22  2  0
M  END
>  <cdk:Title>  (608) 
Citrusinine I

>  <1A2>  (608) 
N

>  <2A6>  (608) 
N

>  <2B6>  (608) 
N

>  <2C8>  (608) 
N

>  <2C9>  (608) 
N

>  <2C19>  (608) 
N

>  <2D6>  (608) 
N

>  <2E1>  (608) 
N

>  <3A4>  (608) 
N

>  <Citation>  (608) 
Nucleic Acids Res. 2018. Jan 4;46(D1):D608-17. PMID:29140435
Nucleic Acids Res. 2018 Jan 4;46(D1):D1074-D1082. PMID:29126136
Nucleic Acids Res., 45:D380-388 (2017).  PMID:27924025
Nucleic Acids Res. 2016 Jan 4;44(D1):D1202-13. PMID:26400175

>  <ROMol>  (608) 
<rdkit.Chem.rdchem.Mol object at 0x7c2905d8f680>

>  <Drug_like>  (608) 
True

$$$$
3-Hexanone
     RDKit          2D

  7  6  0  0  0  0  0  0  0  0999 V2000
    2.0488   -0.6728    0.0000 O   0  0  0  0  0  0  0  0  0  0  0  0
    3.3478    0.0772    0.0000 C   0  0  0  0  0  0  0  0  0  0  0  0
    5.0625   -0.9128    0.0000 C   0  0  0  0  0  0  0  0  0  0  0  0
    5.0625   -2.4128    0.0000 C   0  0  0  0  0  0  0  0  0  0  0  0
    6.3616   -3.1628    0.0000 C   0  0  0  0  0  0  0  0  0  0  0  0
    3.3478    1.5772    0.0000 C   0  0  0  0  0  0  0  0  0  0  0  0
    2.0488    2.3272    0.0000 C   0  0  0  0  0  0  0  0  0  0  0  0
  1  2  2  0
  2  3  1  0
  3  4  1  0
  4  5  1  0
  2  6  1  0
  6  7  1  0
M  END
>  <cdk:Title>  (609) 
3-Hexanone

>  <1A2>  (609) 
N

>  <2A6>  (609) 
N

>  <2B6>  (609) 
N

>  <2C8>  (609) 
N

>  <2C9>  (609) 
N

>  <2C19>  (609) 
N

>  <2D6>  (609) 
N

>  <2E1>  (609) 
N

>  <3A4>  (609) 
N

>  <Citation>  (609) 
Nucleic Acids Res. 2018. Jan 4;46(D1):D608-17. PMID:29140435
Nucleic Acids Res. 2018 Jan 4;46(D1):D1074-D1082. PMID:29126136
Nucleic Acids Res., 45:D380-388 (2017).  PMID:27924025
Nucleic Acids Res. 2016 Jan 4;44(D1):D1202-13. PMID:26400175

>  <ROMol>  (609) 
<rdkit.Chem.rdchem.Mol object at 0x7c2905d8f6f0>

>  <Drug_like>  (609) 
True

$$$$
1-Isothiocyanatobutane
     RDKit          2D

  7  6  0  0  0  0  0  0  0  0999 V2000
    7.7942   -1.5000    0.0000 C   0  0  0  0  0  0  0  0  0  0  0  0
    6.4952   -0.7500    0.0000 C   0  0  0  0  0  0  0  0  0  0  0  0
    5.1962   -1.5000    0.0000 C   0  0  0  0  0  0  0  0  0  0  0  0
    3.8971   -0.7500    0.0000 C   0  0  0  0  0  0  0  0  0  0  0  0
    3.8971    0.7500    0.0000 N   0  0  0  0  0  0  0  0  0  0  0  0
    2.5981    1.5000    0.0000 C   0  0  0  0  0  0  0  0  0  0  0  0
    1.2990    2.2500    0.0000 S   0  0  0  0  0  0  0  0  0  0  0  0
  1  2  1  0
  2  3  1  0
  3  4  1  0
  4  5  1  0
  5  6  2  0
  6  7  2  0
M  END
>  <cdk:Title>  (610) 
1-Isothiocyanatobutane

>  <1A2>  (610) 
N

>  <2A6>  (610) 
N

>  <2B6>  (610) 
N

>  <2C8>  (610) 
N

>  <2C9>  (610) 
N

>  <2C19>  (610) 
N

>  <2D6>  (610) 
N

>  <2E1>  (610) 
N

>  <3A4>  (610) 
N

>  <Citation>  (610) 
Nucleic Acids Res. 2018. Jan 4;46(D1):D608-17. PMID:29140435
Nucleic Acids Res. 2018 Jan 4;46(D1):D1074-D1082. PMID:29126136
Nucleic Acids Res., 45:D380-388 (2017).  PMID:27924025
Nucleic Acids Res. 2016 Jan 4;44(D1):D1202-13. PMID:26400175

>  <ROMol>  (610) 
<rdkit.Chem.rdchem.Mol object at 0x7c2905d8f7d0>

>  <Drug_like>  (610) 
True

$$$$
Morphinone
     RDKit          2D

 21 25  0  0  0  0  0  0  0  0999 V2000
    0.5835   -3.1179    0.0000 C   0  0  0  0  0  0  0  0  0  0  0  0
   -0.6865   -3.8979    0.0000 C   0  0  0  0  0  0  0  0  0  0  0  0
    0.6135   -4.6479    0.0000 C   0  0  0  0  0  0  0  0  0  0  0  0
    0.6135   -6.1479    0.0000 C   0  0  0  0  0  0  0  0  0  0  0  0
   -0.6865   -6.8979    0.0000 C   0  0  0  0  0  0  0  0  0  0  0  0
   -1.9865   -6.1479    0.0000 C   0  0  0  0  0  0  0  0  0  0  0  0
   -1.9865   -4.6479    0.0000 C   0  0  0  0  0  0  0  0  0  0  0  0
   -3.4965   -3.0579    0.0000 O   0  0  0  0  0  0  0  0  0  0  0  0
   -2.0165   -1.6579    0.0000 C   0  0  0  0  0  0  0  0  0  0  0  0
   -0.7065   -2.3979    0.0000 C   0  0  0  0  0  0  0  0  0  0  0  0
    0.5835   -1.6279    0.0000 C   0  0  0  0  0  0  0  0  0  0  0  0
    0.5635   -0.1279    0.0000 C   0  0  0  0  0  0  0  0  0  0  0  0
   -0.7365    0.6121    0.0000 C   0  0  0  0  0  0  0  0  0  0  0  0
   -2.0265   -0.1579    0.0000 C   0  0  0  0  0  0  0  0  0  0  0  0
   -3.3334    0.5783    0.0000 O   0  0  0  0  0  0  0  0  0  0  0  0
    1.8935   -2.3779    0.0000 C   0  0  0  0  0  0  0  0  0  0  0  0
    1.9035   -3.8779    0.0000 C   0  0  0  0  0  0  0  0  0  0  0  0
    3.2235   -4.6179    0.0000 N   0  0  0  0  0  0  0  0  0  0  0  0
    3.1935   -3.1079    0.0000 C   0  0  0  0  0  0  0  0  0  0  0  0
    3.8469   -5.9822    0.0000 C   0  0  0  0  0  0  0  0  0  0  0  0
   -3.2855   -6.8981    0.0000 O   0  0  0  0  0  0  0  0  0  0  0  0
  2  1  1  1
  2  3  1  0
  3  4  1  0
  4  5  2  0
  5  6  1  0
  6  7  1  0
  2  7  1  0
  7  8  1  0
  8  9  1  0
  9 10  2  0
  2 10  1  0
 10 11  1  0
 11 12  2  0
 12 13  1  0
 13 14  2  0
  9 14  1  0
 14 15  1  0
 11 16  1  0
 16 17  1  0
  3 17  1  0
 17 18  1  0
 18 19  1  0
  1 19  1  0
 18 20  1  0
  6 21  2  0
M  END
>  <cdk:Title>  (611) 
Morphinone

>  <1A2>  (611) 
N

>  <2A6>  (611) 
N

>  <2B6>  (611) 
N

>  <2C8>  (611) 
N

>  <2C9>  (611) 
N

>  <2C19>  (611) 
N

>  <2D6>  (611) 
N

>  <2E1>  (611) 
N

>  <3A4>  (611) 
N

>  <Citation>  (611) 
Nucleic Acids Res. 2018. Jan 4;46(D1):D608-17. PMID:29140435
Nucleic Acids Res. 2018 Jan 4;46(D1):D1074-D1082. PMID:29126136
Nucleic Acids Res., 45:D380-388 (2017).  PMID:27924025
Nucleic Acids Res. 2016 Jan 4;44(D1):D1202-13. PMID:26400175

>  <ROMol>  (611) 
<rdkit.Chem.rdchem.Mol object at 0x7c2905d8f840>

>  <Drug_like>  (611) 
True

$$$$
Linderanolide b
     RDKit          2D

 22 22  0  0  0  0  0  0  0  0999 V2000
    4.1570   -1.5256    0.0000 C   0  0  0  0  0  0  0  0  0  0  0  0
    2.7293   -1.0656    0.0000 C   0  0  0  0  0  0  0  0  0  0  0  0
    2.2693    0.3544    0.0000 C   0  0  0  0  0  0  0  0  0  0  0  0
    3.7367    0.6654    0.0000 O   0  0  0  0  0  0  0  0  0  0  0  0
    0.7693    0.3544    0.0000 C   0  0  0  0  0  0  0  0  0  0  0  0
   -0.1129    1.5675    0.0000 C   0  0  0  0  0  0  0  0  0  0  0  0
   -1.6046    1.4100    0.0000 C   0  0  0  0  0  0  0  0  0  0  0  0
   -2.7691    3.0114    0.0000 C   0  0  0  0  0  0  0  0  0  0  0  0
   -4.7382    2.8036    0.0000 C   0  0  0  0  0  0  0  0  0  0  0  0
   -5.9027    4.4049    0.0000 C   0  0  0  0  0  0  0  0  0  0  0  0
   -7.8718    4.1971    0.0000 C   0  0  0  0  0  0  0  0  0  0  0  0
   -9.0363    5.7984    0.0000 C   0  0  0  0  0  0  0  0  0  0  0  0
  -11.0054    5.5906    0.0000 C   0  0  0  0  0  0  0  0  0  0  0  0
  -12.1699    7.1919    0.0000 C   0  0  0  0  0  0  0  0  0  0  0  0
  -14.1389    6.9841    0.0000 C   0  0  0  0  0  0  0  0  0  0  0  0
  -15.3035    8.5854    0.0000 C   0  0  0  0  0  0  0  0  0  0  0  0
  -17.2725    8.3776    0.0000 C   0  0  0  0  0  0  0  0  0  0  0  0
  -18.1547    9.5907    0.0000 C   0  0  0  0  0  0  0  0  0  0  0  0
  -19.6465    9.4333    0.0000 C   0  0  0  0  0  0  0  0  0  0  0  0
    0.3093   -1.0656    0.0000 C   0  0  0  0  0  0  0  0  0  0  0  0
   -1.1184   -1.5256    0.0000 O   0  0  0  0  0  0  0  0  0  0  0  0
    1.5193   -1.9556    0.0000 O   0  0  0  0  0  0  0  0  0  0  0  0
  1  2  2  0
  2  3  1  0
  3  4  1  0
  3  5  1  0
  5  6  2  0
  6  7  1  0
  7  8  1  0
  8  9  1  0
  9 10  1  0
 10 11  1  0
 11 12  1  0
 12 13  1  0
 13 14  1  0
 14 15  1  0
 15 16  1  0
 16 17  1  0
 17 18  1  0
 18 19  1  0
  5 20  1  0
 20 21  2  0
 20 22  1  0
  2 22  1  0
M  END
>  <cdk:Title>  (612) 
Linderanolide b

>  <1A2>  (612) 
N

>  <2A6>  (612) 
N

>  <2B6>  (612) 
N

>  <2C8>  (612) 
N

>  <2C9>  (612) 
N

>  <2C19>  (612) 
N

>  <2D6>  (612) 
N

>  <2E1>  (612) 
N

>  <3A4>  (612) 
N

>  <Citation>  (612) 
Nucleic Acids Res. 2018. Jan 4;46(D1):D608-17. PMID:29140435
Nucleic Acids Res. 2018 Jan 4;46(D1):D1074-D1082. PMID:29126136
Nucleic Acids Res., 45:D380-388 (2017).  PMID:27924025
Nucleic Acids Res. 2016 Jan 4;44(D1):D1202-13. PMID:26400175

>  <ROMol>  (612) 
<rdkit.Chem.rdchem.Mol object at 0x7c2905d8fa00>

>  <Drug_like>  (612) 
True

$$$$
3_4-Dicaffeoyl-1_5-quinolactone
     RDKit          2D

 36 39  0  0  0  0  0  0  0  0999 V2000
   -1.6768   -0.6877    0.0000 C   0  0  0  0  0  0  0  0  0  0  0  0
   -1.6768    0.8123    0.0000 C   0  0  0  0  0  0  0  0  0  0  0  0
   -0.3768    1.5623    0.0000 C   0  0  0  0  0  0  0  0  0  0  0  0
    0.9232    0.8123    0.0000 C   0  0  0  0  0  0  0  0  0  0  0  0
    0.9232   -0.6877    0.0000 C   0  0  0  0  0  0  0  0  0  0  0  0
   -0.5568   -0.4677    0.0000 O   0  0  0  0  0  0  0  0  0  0  0  0
   -1.0768    0.5223    0.0000 C   0  0  0  0  0  0  0  0  0  0  0  0
   -2.5746    0.6038    0.0000 O   0  0  0  0  0  0  0  0  0  0  0  0
   -0.3768   -1.4377    0.0000 C   0  0  0  0  0  0  0  0  0  0  0  0
   -1.3408   -2.5869    0.0000 O   0  0  0  0  0  0  0  0  0  0  0  0
   -0.8277   -3.9964    0.0000 C   0  0  0  0  0  0  0  0  0  0  0  0
    0.6496   -4.2567    0.0000 O   0  0  0  0  0  0  0  0  0  0  0  0
   -1.7917   -5.1455    0.0000 C   0  0  0  0  0  0  0  0  0  0  0  0
   -1.2785   -6.5550    0.0000 C   0  0  0  0  0  0  0  0  0  0  0  0
   -2.2426   -7.7042    0.0000 C   0  0  0  0  0  0  0  0  0  0  0  0
   -1.7287   -9.1143    0.0000 C   0  0  0  0  0  0  0  0  0  0  0  0
   -2.6927  -10.2635    0.0000 C   0  0  0  0  0  0  0  0  0  0  0  0
   -4.1707  -10.0025    0.0000 C   0  0  0  0  0  0  0  0  0  0  0  0
   -5.1348  -11.1517    0.0000 O   0  0  0  0  0  0  0  0  0  0  0  0
   -4.6846   -8.5924    0.0000 C   0  0  0  0  0  0  0  0  0  0  0  0
   -3.7206   -7.4433    0.0000 C   0  0  0  0  0  0  0  0  0  0  0  0
   -2.1798  -11.6730    0.0000 O   0  0  0  0  0  0  0  0  0  0  0  0
    2.0819    1.6418    0.0000 O   0  0  0  0  0  0  0  0  0  0  0  0
   -3.1540   -0.4274    0.0000 O   0  0  0  0  0  0  0  0  0  0  0  0
   -4.1181   -1.5766    0.0000 C   0  0  0  0  0  0  0  0  0  0  0  0
   -3.6049   -2.9861    0.0000 O   0  0  0  0  0  0  0  0  0  0  0  0
   -5.5953   -1.3163    0.0000 C   0  0  0  0  0  0  0  0  0  0  0  0
   -6.5594   -2.4654    0.0000 C   0  0  0  0  0  0  0  0  0  0  0  0
   -8.0366   -2.2051    0.0000 C   0  0  0  0  0  0  0  0  0  0  0  0
   -8.5496   -0.7947    0.0000 C   0  0  0  0  0  0  0  0  0  0  0  0
  -10.0269   -0.5344    0.0000 C   0  0  0  0  0  0  0  0  0  0  0  0
  -10.9911   -1.6845    0.0000 C   0  0  0  0  0  0  0  0  0  0  0  0
  -12.4683   -1.4242    0.0000 O   0  0  0  0  0  0  0  0  0  0  0  0
  -10.4781   -3.0949    0.0000 C   0  0  0  0  0  0  0  0  0  0  0  0
   -9.0008   -3.3552    0.0000 C   0  0  0  0  0  0  0  0  0  0  0  0
  -10.5403    0.8750    0.0000 O   0  0  0  0  0  0  0  0  0  0  0  0
  1  2  1  0
  2  3  1  0
  3  4  1  0
  4  5  1  0
  5  6  1  0
  6  7  1  0
  3  7  1  0
  7  8  2  0
  5  9  1  0
  1  9  1  0
  9 10  1  0
 10 11  1  0
 11 12  2  0
 11 13  1  0
 13 14  2  0
 14 15  1  0
 15 16  2  0
 16 17  1  0
 17 18  2  0
 18 19  1  0
 18 20  1  0
 20 21  2  0
 15 21  1  0
 17 22  1  0
  3 23  1  1
  1 24  1  0
 24 25  1  0
 25 26  2  0
 25 27  1  0
 27 28  2  0
 28 29  1  0
 29 30  2  0
 30 31  1  0
 31 32  2  0
 32 33  1  0
 32 34  1  0
 34 35  2  0
 29 35  1  0
 31 36  1  0
M  END
>  <cdk:Title>  (613) 
3_4-Dicaffeoyl-1_5-quinolactone

>  <1A2>  (613) 
N

>  <2A6>  (613) 
N

>  <2B6>  (613) 
N

>  <2C8>  (613) 
N

>  <2C9>  (613) 
N

>  <2C19>  (613) 
N

>  <2D6>  (613) 
N

>  <2E1>  (613) 
N

>  <3A4>  (613) 
N

>  <Citation>  (613) 
Nucleic Acids Res. 2018. Jan 4;46(D1):D608-17. PMID:29140435
Nucleic Acids Res. 2018 Jan 4;46(D1):D1074-D1082. PMID:29126136
Nucleic Acids Res., 45:D380-388 (2017).  PMID:27924025
Nucleic Acids Res. 2016 Jan 4;44(D1):D1202-13. PMID:26400175

>  <ROMol>  (613) 
<rdkit.Chem.rdchem.Mol object at 0x7c2905d8fa70>

>  <Drug_like>  (613) 
True

$$$$
2-Hydroxyestrone
     RDKit          2D

 21 24  0  0  0  0  0  0  0  0999 V2000
   -3.8120   -3.7633    0.0000 C   0  0  0  0  0  0  0  0  0  0  0  0
   -5.1109   -4.5135    0.0000 O   0  0  0  0  0  0  0  0  0  0  0  0
   -3.8120   -2.2633    0.0000 C   0  0  0  0  0  0  0  0  0  0  0  0
   -2.5120   -1.5133    0.0000 C   0  0  0  0  0  0  0  0  0  0  0  0
   -1.2120   -2.2633    0.0000 C   0  0  0  0  0  0  0  0  0  0  0  0
   -1.2120   -3.7633    0.0000 C   0  0  0  0  0  0  0  0  0  0  0  0
   -2.5120   -4.5133    0.0000 C   0  0  0  0  0  0  0  0  0  0  0  0
    0.0880   -4.5133    0.0000 C   0  0  0  0  0  0  0  0  0  0  0  0
    1.3880   -3.7633    0.0000 C   0  0  0  0  0  0  0  0  0  0  0  0
    1.3880   -2.2633    0.0000 C   0  0  0  0  0  0  0  0  0  0  0  0
    2.6880   -1.5133    0.0000 C   0  0  0  0  0  0  0  0  0  0  0  0
    4.1080   -1.9833    0.0000 C   0  0  0  0  0  0  0  0  0  0  0  0
    4.9980   -0.7633    0.0000 C   0  0  0  0  0  0  0  0  0  0  0  0
    4.1080    0.4467    0.0000 C   0  0  0  0  0  0  0  0  0  0  0  0
    4.5680    1.8744    0.0000 O   0  0  0  0  0  0  0  0  0  0  0  0
    2.6880   -0.0133    0.0000 C   0  0  0  0  0  0  0  0  0  0  0  0
    2.9962    2.9105    0.0000 C   0  0  0  0  0  0  0  0  0  0  0  0
    1.3880    0.7367    0.0000 C   0  0  0  0  0  0  0  0  0  0  0  0
    0.0880   -0.0133    0.0000 C   0  0  0  0  0  0  0  0  0  0  0  0
    0.0880   -1.5133    0.0000 C   0  0  0  0  0  0  0  0  0  0  0  0
   -5.1109   -1.5131    0.0000 O   0  0  0  0  0  0  0  0  0  0  0  0
  1  2  1  0
  1  3  2  0
  3  4  1  0
  4  5  2  0
  5  6  1  0
  6  7  2  0
  1  7  1  0
  6  8  1  0
  8  9  1  0
  9 10  1  0
 10 11  1  0
 11 12  1  0
 12 13  1  0
 13 14  1  0
 14 15  2  0
 14 16  1  0
 11 16  1  0
 16 17  1  1
 16 18  1  0
 18 19  1  0
 19 20  1  0
 10 20  1  0
  5 20  1  0
  3 21  1  0
M  END
>  <cdk:Title>  (614) 
2-Hydroxyestrone

>  <1A2>  (614) 
N

>  <2A6>  (614) 
N

>  <2B6>  (614) 
N

>  <2C8>  (614) 
N

>  <2C9>  (614) 
N

>  <2C19>  (614) 
N

>  <2D6>  (614) 
N

>  <2E1>  (614) 
N

>  <3A4>  (614) 
N

>  <Citation>  (614) 
Nucleic Acids Res. 2018. Jan 4;46(D1):D608-17. PMID:29140435
Nucleic Acids Res. 2018 Jan 4;46(D1):D1074-D1082. PMID:29126136
Nucleic Acids Res., 45:D380-388 (2017).  PMID:27924025
Nucleic Acids Res. 2016 Jan 4;44(D1):D1202-13. PMID:26400175

>  <ROMol>  (614) 
<rdkit.Chem.rdchem.Mol object at 0x7c2905d8fae0>

>  <Drug_like>  (614) 
True

$$$$
(S)-Menthone 8-thioacetate
     RDKit          2D

 15 15  0  0  0  0  0  0  0  0999 V2000
   -0.9182   -5.8528    0.0000 C   0  0  0  0  0  0  0  0  0  0  0  0
   -0.4056   -4.4422    0.0000 C   0  0  0  0  0  0  0  0  0  0  0  0
    1.0715   -4.1814    0.0000 C   0  0  0  0  0  0  0  0  0  0  0  0
    2.0361   -5.3312    0.0000 C   0  0  0  0  0  0  0  0  0  0  0  0
    1.5236   -6.7418    0.0000 C   0  0  0  0  0  0  0  0  0  0  0  0
    0.0464   -7.0026    0.0000 C   0  0  0  0  0  0  0  0  0  0  0  0
    2.4882   -7.8905    0.0000 O   0  0  0  0  0  0  0  0  0  0  0  0
    3.9257   -3.0788    0.0000 C   0  0  0  0  0  0  0  0  0  0  0  0
    3.4125   -1.6694    0.0000 S   0  0  0  0  0  0  0  0  0  0  0  0
    1.9353   -1.4090    0.0000 C   0  0  0  0  0  0  0  0  0  0  0  0
    1.4221    0.0004    0.0000 C   0  0  0  0  0  0  0  0  0  0  0  0
    0.9712   -2.5582    0.0000 O   0  0  0  0  0  0  0  0  0  0  0  0
    4.6758   -4.3778    0.0000 C   0  0  0  0  0  0  0  0  0  0  0  0
    5.2246   -2.3287    0.0000 C   0  0  0  0  0  0  0  0  0  0  0  0
   -2.8077   -8.1052    0.0000 C   0  0  0  0  0  0  0  0  0  0  0  0
  1  2  1  0
  2  3  1  0
  3  4  1  0
  4  5  1  0
  5  6  1  0
  1  6  1  0
  5  7  2  0
  4  8  1  0
  8  9  1  0
  9 10  1  0
 10 11  1  0
 10 12  2  0
  8 13  1  0
  8 14  1  0
  1 15  1  0
M  END
>  <cdk:Title>  (615) 
(S)-Menthone 8-thioacetate

>  <1A2>  (615) 
N

>  <2A6>  (615) 
N

>  <2B6>  (615) 
N

>  <2C8>  (615) 
N

>  <2C9>  (615) 
N

>  <2C19>  (615) 
N

>  <2D6>  (615) 
N

>  <2E1>  (615) 
N

>  <3A4>  (615) 
N

>  <Citation>  (615) 
Nucleic Acids Res. 2018. Jan 4;46(D1):D608-17. PMID:29140435
Nucleic Acids Res. 2018 Jan 4;46(D1):D1074-D1082. PMID:29126136
Nucleic Acids Res., 45:D380-388 (2017).  PMID:27924025
Nucleic Acids Res. 2016 Jan 4;44(D1):D1202-13. PMID:26400175

>  <ROMol>  (615) 
<rdkit.Chem.rdchem.Mol object at 0x7c2905d8fb50>

>  <Drug_like>  (615) 
True

$$$$
AC1licld
     RDKit          2D

 19 21  0  0  0  0  0  0  0  0999 V2000
   -4.8444    1.6668    0.0000 O   0  0  0  0  0  0  0  0  0  0  0  0
   -3.5454    0.9166    0.0000 C   0  0  0  0  0  0  0  0  0  0  0  0
   -3.5454   -0.5834    0.0000 C   0  0  0  0  0  0  0  0  0  0  0  0
   -2.2454   -1.3334    0.0000 C   0  0  0  0  0  0  0  0  0  0  0  0
   -0.9454   -0.5834    0.0000 C   0  0  0  0  0  0  0  0  0  0  0  0
   -0.9454    0.9166    0.0000 C   0  0  0  0  0  0  0  0  0  0  0  0
   -2.2454    1.6666    0.0000 C   0  0  0  0  0  0  0  0  0  0  0  0
    0.3546    1.6666    0.0000 O   0  0  0  0  0  0  0  0  0  0  0  0
    1.6546    0.9166    0.0000 C   0  0  0  0  0  0  0  0  0  0  0  0
    1.6546   -0.5834    0.0000 C   0  0  0  0  0  0  0  0  0  0  0  0
    0.3546   -1.3334    0.0000 C   0  0  0  0  0  0  0  0  0  0  0  0
    0.3546   -2.8334    0.0000 O   0  0  0  0  0  0  0  0  0  0  0  0
    4.0772    0.4897    0.0000 C   0  0  0  0  0  0  0  0  0  0  0  0
    5.0356    1.6436    0.0000 C   0  0  0  0  0  0  0  0  0  0  0  0
    6.4918    1.4091    0.0000 C   0  0  0  0  0  0  0  0  0  0  0  0
    7.0511   -0.0304    0.0000 C   0  0  0  0  0  0  0  0  0  0  0  0
    6.0927   -1.1843    0.0000 C   0  0  0  0  0  0  0  0  0  0  0  0
    4.5750   -0.8987    0.0000 C   0  0  0  0  0  0  0  0  0  0  0  0
    8.5317   -0.2712    0.0000 O   0  0  0  0  0  0  0  0  0  0  0  0
  1  2  1  0
  2  3  2  0
  3  4  1  0
  4  5  2  0
  5  6  1  0
  6  7  2  0
  2  7  1  0
  6  8  1  0
  8  9  1  0
  9 10  1  0
 10 11  1  0
  5 11  1  0
 11 12  2  0
  9 13  1  0
 13 14  2  0
 14 15  1  0
 15 16  2  0
 16 17  1  0
 17 18  2  0
 13 18  1  0
 16 19  1  0
M  END
>  <cdk:Title>  (616) 
AC1licld

>  <1A2>  (616) 
N

>  <2A6>  (616) 
N

>  <2B6>  (616) 
N

>  <2C8>  (616) 
N

>  <2C9>  (616) 
N

>  <2C19>  (616) 
N

>  <2D6>  (616) 
N

>  <2E1>  (616) 
N

>  <3A4>  (616) 
N

>  <Citation>  (616) 
Nucleic Acids Res. 2018. Jan 4;46(D1):D608-17. PMID:29140435
Nucleic Acids Res. 2018 Jan 4;46(D1):D1074-D1082. PMID:29126136
Nucleic Acids Res., 45:D380-388 (2017).  PMID:27924025
Nucleic Acids Res. 2016 Jan 4;44(D1):D1202-13. PMID:26400175

>  <ROMol>  (616) 
<rdkit.Chem.rdchem.Mol object at 0x7c2905d8fbc0>

>  <Drug_like>  (616) 
True

$$$$
2_3-Dimethylphenol
     RDKit          2D

  9  9  0  0  0  0  0  0  0  0999 V2000
   -1.7017    1.9200    0.0000 C   0  0  0  0  0  0  0  0  0  0  0  0
   -0.4028    1.1698    0.0000 C   0  0  0  0  0  0  0  0  0  0  0  0
    0.8972    1.9198    0.0000 C   0  0  0  0  0  0  0  0  0  0  0  0
    2.1972    1.1698    0.0000 C   0  0  0  0  0  0  0  0  0  0  0  0
    2.1972   -0.3302    0.0000 C   0  0  0  0  0  0  0  0  0  0  0  0
    0.8972   -1.0802    0.0000 C   0  0  0  0  0  0  0  0  0  0  0  0
   -0.4028   -0.3302    0.0000 C   0  0  0  0  0  0  0  0  0  0  0  0
   -1.7017   -1.0804    0.0000 C   0  0  0  0  0  0  0  0  0  0  0  0
    0.8972   -2.5802    0.0000 O   0  0  0  0  0  0  0  0  0  0  0  0
  1  2  1  0
  2  3  2  0
  3  4  1  0
  4  5  2  0
  5  6  1  0
  6  7  2  0
  2  7  1  0
  7  8  1  0
  6  9  1  0
M  END
>  <cdk:Title>  (617) 
2_3-Dimethylphenol

>  <1A2>  (617) 
N

>  <2A6>  (617) 
N

>  <2B6>  (617) 
N

>  <2C8>  (617) 
N

>  <2C9>  (617) 
N

>  <2C19>  (617) 
N

>  <2D6>  (617) 
N

>  <2E1>  (617) 
N

>  <3A4>  (617) 
N

>  <Citation>  (617) 
Nucleic Acids Res. 2018. Jan 4;46(D1):D608-17. PMID:29140435
Nucleic Acids Res. 2018 Jan 4;46(D1):D1074-D1082. PMID:29126136
Nucleic Acids Res., 45:D380-388 (2017).  PMID:27924025
Nucleic Acids Res. 2016 Jan 4;44(D1):D1202-13. PMID:26400175

>  <ROMol>  (617) 
<rdkit.Chem.rdchem.Mol object at 0x7c2905d8fc30>

>  <Drug_like>  (617) 
True

$$$$
Leukotriene b4 dimethylamide
     RDKit          2D

 26 25  0  0  0  0  0  0  0  0999 V2000
   27.5982    0.1795    0.0000 O   0  0  0  0  0  0  0  0  0  0  0  0
   28.1112   -1.2300    0.0000 C   0  0  0  0  0  0  0  0  0  0  0  0
   29.4102   -0.4800    0.0000 C   0  0  0  0  0  0  0  0  0  0  0  0
   30.7093   -1.2300    0.0000 C   0  0  0  0  0  0  0  0  0  0  0  0
   32.4240   -0.2400    0.0000 C   0  0  0  0  0  0  0  0  0  0  0  0
   33.7230   -0.9900    0.0000 C   0  0  0  0  0  0  0  0  0  0  0  0
   33.7230   -2.4900    0.0000 O   0  0  0  0  0  0  0  0  0  0  0  0
   35.0221   -0.2400    0.0000 N   0  0  0  0  0  0  0  0  0  0  0  0
   36.3211   -0.9900    0.0000 C   0  0  0  0  0  0  0  0  0  0  0  0
   35.0221    1.2600    0.0000 C   0  0  0  0  0  0  0  0  0  0  0  0
   28.1112   -2.7300    0.0000 C   0  0  0  0  0  0  0  0  0  0  0  0
   26.8121   -3.4800    0.0000 C   0  0  0  0  0  0  0  0  0  0  0  0
   25.5131   -2.7300    0.0000 C   0  0  0  0  0  0  0  0  0  0  0  0
   24.2141   -3.4800    0.0000 C   0  0  0  0  0  0  0  0  0  0  0  0
   22.9150   -2.7300    0.0000 C   0  0  0  0  0  0  0  0  0  0  0  0
   21.6160   -3.4800    0.0000 C   0  0  0  0  0  0  0  0  0  0  0  0
   20.3170   -2.7300    0.0000 C   0  0  0  0  0  0  0  0  0  0  0  0
   18.6022   -3.7200    0.0000 C   0  0  0  0  0  0  0  0  0  0  0  0
   16.4718   -2.4900    0.0000 C   0  0  0  0  0  0  0  0  0  0  0  0
   16.4718   -0.0300    0.0000 C   0  0  0  0  0  0  0  0  0  0  0  0
   17.7708    0.7200    0.0000 C   0  0  0  0  0  0  0  0  0  0  0  0
   17.7708    2.2200    0.0000 C   0  0  0  0  0  0  0  0  0  0  0  0
   16.0561    3.2100    0.0000 C   0  0  0  0  0  0  0  0  0  0  0  0
   16.0561    4.7100    0.0000 C   0  0  0  0  0  0  0  0  0  0  0  0
   14.7571    5.4600    0.0000 C   0  0  0  0  0  0  0  0  0  0  0  0
   19.3528   -1.5809    0.0000 O   0  0  0  0  0  0  0  0  0  0  0  0
  1  2  1  0
  2  3  1  0
  3  4  1  0
  4  5  1  0
  5  6  1  0
  6  7  2  0
  6  8  1  0
  8  9  1  0
  8 10  1  0
  2 11  1  0
 11 12  2  0
 12 13  1  0
 13 14  2  0
 14 15  1  0
 15 16  2  0
 16 17  1  0
 17 18  1  0
 18 19  1  0
 19 20  2  0
 20 21  1  0
 21 22  1  0
 22 23  1  0
 23 24  1  0
 24 25  1  0
 17 26  1  0
M  END
>  <cdk:Title>  (618) 
Leukotriene b4 dimethylamide

>  <1A2>  (618) 
N

>  <2A6>  (618) 
N

>  <2B6>  (618) 
N

>  <2C8>  (618) 
N

>  <2C9>  (618) 
N

>  <2C19>  (618) 
N

>  <2D6>  (618) 
N

>  <2E1>  (618) 
N

>  <3A4>  (618) 
N

>  <Citation>  (618) 
Nucleic Acids Res. 2018. Jan 4;46(D1):D608-17. PMID:29140435
Nucleic Acids Res. 2018 Jan 4;46(D1):D1074-D1082. PMID:29126136
Nucleic Acids Res., 45:D380-388 (2017).  PMID:27924025
Nucleic Acids Res. 2016 Jan 4;44(D1):D1202-13. PMID:26400175

>  <ROMol>  (618) 
<rdkit.Chem.rdchem.Mol object at 0x7c2905d8fca0>

>  <Drug_like>  (618) 
True

$$$$
Equol
     RDKit          2D

 18 20  0  0  0  0  0  0  0  0999 V2000
    0.9719    2.4022    0.0000 O   0  0  0  0  0  0  0  0  0  0  0  0
    2.2719    1.6522    0.0000 C   0  0  0  0  0  0  0  0  0  0  0  0
    2.2719    0.1522    0.0000 C   0  0  0  0  0  0  0  0  0  0  0  0
    0.9719   -0.5978    0.0000 C   0  0  0  0  0  0  0  0  0  0  0  0
   -0.3281    0.1522    0.0000 C   0  0  0  0  0  0  0  0  0  0  0  0
   -0.3281    1.6522    0.0000 C   0  0  0  0  0  0  0  0  0  0  0  0
   -1.6281    2.4022    0.0000 C   0  0  0  0  0  0  0  0  0  0  0  0
   -2.9281    1.6522    0.0000 C   0  0  0  0  0  0  0  0  0  0  0  0
   -4.2271    2.4024    0.0000 O   0  0  0  0  0  0  0  0  0  0  0  0
   -2.9281    0.1522    0.0000 C   0  0  0  0  0  0  0  0  0  0  0  0
   -1.6281   -0.5978    0.0000 C   0  0  0  0  0  0  0  0  0  0  0  0
    3.1127   -2.1596    0.0000 C   0  0  0  0  0  0  0  0  0  0  0  0
    4.5912   -2.4132    0.0000 C   0  0  0  0  0  0  0  0  0  0  0  0
    5.1157   -3.7917    0.0000 C   0  0  0  0  0  0  0  0  0  0  0  0
    4.1483   -4.9955    0.0000 C   0  0  0  0  0  0  0  0  0  0  0  0
    4.6796   -6.3982    0.0000 O   0  0  0  0  0  0  0  0  0  0  0  0
    2.6699   -4.7420    0.0000 C   0  0  0  0  0  0  0  0  0  0  0  0
    2.1589   -3.2846    0.0000 C   0  0  0  0  0  0  0  0  0  0  0  0
  1  2  1  0
  2  3  1  0
  3  4  1  0
  4  5  1  0
  5  6  2  0
  1  6  1  0
  6  7  1  0
  7  8  2  0
  8  9  1  0
  8 10  1  0
 10 11  2  0
  5 11  1  0
  3 12  1  0
 12 13  2  0
 13 14  1  0
 14 15  2  0
 15 16  1  0
 15 17  1  0
 17 18  2  0
 12 18  1  0
M  END
>  <cdk:Title>  (619) 
Equol

>  <1A2>  (619) 
N

>  <2A6>  (619) 
N

>  <2B6>  (619) 
N

>  <2C8>  (619) 
N

>  <2C9>  (619) 
N

>  <2C19>  (619) 
N

>  <2D6>  (619) 
N

>  <2E1>  (619) 
N

>  <3A4>  (619) 
N

>  <Citation>  (619) 
Nucleic Acids Res. 2018. Jan 4;46(D1):D608-17. PMID:29140435
Nucleic Acids Res. 2018 Jan 4;46(D1):D1074-D1082. PMID:29126136
Nucleic Acids Res., 45:D380-388 (2017).  PMID:27924025
Nucleic Acids Res. 2016 Jan 4;44(D1):D1202-13. PMID:26400175

>  <ROMol>  (619) 
<rdkit.Chem.rdchem.Mol object at 0x7c2905d8fd10>

>  <Drug_like>  (619) 
True

$$$$
4-Hydroxystyrene
     RDKit          2D

  9  9  0  0  0  0  0  0  0  0999 V2000
    3.9098   -1.5158    0.0000 O   0  0  0  0  0  0  0  0  0  0  0  0
    2.6047   -0.7766    0.0000 C   0  0  0  0  0  0  0  0  0  0  0  0
    2.5792    0.7676    0.0000 C   0  0  0  0  0  0  0  0  0  0  0  0
    1.2947    1.4924    0.0000 C   0  0  0  0  0  0  0  0  0  0  0  0
   -0.0044    0.7424    0.0000 C   0  0  0  0  0  0  0  0  0  0  0  0
   -1.2997    1.4988    0.0000 C   0  0  0  0  0  0  0  0  0  0  0  0
   -2.6024    0.7552    0.0000 C   0  0  0  0  0  0  0  0  0  0  0  0
   -0.0189   -0.7324    0.0000 C   0  0  0  0  0  0  0  0  0  0  0  0
    1.3056   -1.5266    0.0000 C   0  0  0  0  0  0  0  0  0  0  0  0
  1  2  1  0
  2  3  2  0
  3  4  1  0
  4  5  2  0
  5  6  1  0
  6  7  2  0
  5  8  1  0
  8  9  2  0
  2  9  1  0
M  END
>  <cdk:Title>  (620) 
4-Hydroxystyrene

>  <1A2>  (620) 
N

>  <2A6>  (620) 
N

>  <2B6>  (620) 
N

>  <2C8>  (620) 
N

>  <2C9>  (620) 
N

>  <2C19>  (620) 
N

>  <2D6>  (620) 
N

>  <2E1>  (620) 
N

>  <3A4>  (620) 
N

>  <Citation>  (620) 
Nucleic Acids Res. 2018. Jan 4;46(D1):D608-17. PMID:29140435
Nucleic Acids Res. 2018 Jan 4;46(D1):D1074-D1082. PMID:29126136
Nucleic Acids Res., 45:D380-388 (2017).  PMID:27924025
Nucleic Acids Res. 2016 Jan 4;44(D1):D1202-13. PMID:26400175

>  <ROMol>  (620) 
<rdkit.Chem.rdchem.Mol object at 0x7c2905d8ff40>

>  <Drug_like>  (620) 
True

$$$$
Dodecyl propionate
     RDKit          2D

 17 16  0  0  0  0  0  0  0  0999 V2000
    0.7229    4.9420    0.0000 C   0  0  0  0  0  0  0  0  0  0  0  0
    2.2229    4.9420    0.0000 C   0  0  0  0  0  0  0  0  0  0  0  0
    2.9729    3.6429    0.0000 C   0  0  0  0  0  0  0  0  0  0  0  0
    5.4329    3.6429    0.0000 C   0  0  0  0  0  0  0  0  0  0  0  0
    6.4229    1.9282    0.0000 C   0  0  0  0  0  0  0  0  0  0  0  0
    7.9229    1.9282    0.0000 C   0  0  0  0  0  0  0  0  0  0  0  0
    9.1529   -0.2022    0.0000 C   0  0  0  0  0  0  0  0  0  0  0  0
   11.1329   -0.2022    0.0000 C   0  0  0  0  0  0  0  0  0  0  0  0
   12.1229   -1.9169    0.0000 C   0  0  0  0  0  0  0  0  0  0  0  0
   14.1029   -1.9169    0.0000 C   0  0  0  0  0  0  0  0  0  0  0  0
   15.0929   -3.6317    0.0000 C   0  0  0  0  0  0  0  0  0  0  0  0
   16.5929   -3.6317    0.0000 C   0  0  0  0  0  0  0  0  0  0  0  0
   17.3429   -4.9307    0.0000 O   0  0  0  0  0  0  0  0  0  0  0  0
   18.8429   -4.9307    0.0000 C   0  0  0  0  0  0  0  0  0  0  0  0
   19.5929   -6.2298    0.0000 C   0  0  0  0  0  0  0  0  0  0  0  0
   21.0929   -6.2298    0.0000 C   0  0  0  0  0  0  0  0  0  0  0  0
   19.5929   -3.6317    0.0000 O   0  0  0  0  0  0  0  0  0  0  0  0
  1  2  1  0
  2  3  1  0
  3  4  1  0
  4  5  1  0
  5  6  1  0
  6  7  1  0
  7  8  1  0
  8  9  1  0
  9 10  1  0
 10 11  1  0
 11 12  1  0
 12 13  1  0
 13 14  1  0
 14 15  1  0
 15 16  1  0
 14 17  2  0
M  END
>  <cdk:Title>  (621) 
Dodecyl propionate

>  <1A2>  (621) 
N

>  <2A6>  (621) 
N

>  <2B6>  (621) 
N

>  <2C8>  (621) 
N

>  <2C9>  (621) 
N

>  <2C19>  (621) 
N

>  <2D6>  (621) 
N

>  <2E1>  (621) 
N

>  <3A4>  (621) 
N

>  <Citation>  (621) 
Nucleic Acids Res. 2018. Jan 4;46(D1):D608-17. PMID:29140435
Nucleic Acids Res. 2018 Jan 4;46(D1):D1074-D1082. PMID:29126136
Nucleic Acids Res., 45:D380-388 (2017).  PMID:27924025
Nucleic Acids Res. 2016 Jan 4;44(D1):D1202-13. PMID:26400175

>  <ROMol>  (621) 
<rdkit.Chem.rdchem.Mol object at 0x7c2905dc40b0>

>  <Drug_like>  (621) 
True

$$$$
2-Hydroxyestradiol
     RDKit          2D

 21 24  0  0  0  0  0  0  0  0999 V2000
   -3.8120   -3.7633    0.0000 C   0  0  0  0  0  0  0  0  0  0  0  0
   -5.1109   -4.5135    0.0000 O   0  0  0  0  0  0  0  0  0  0  0  0
   -3.8120   -2.2633    0.0000 C   0  0  0  0  0  0  0  0  0  0  0  0
   -2.5120   -1.5133    0.0000 C   0  0  0  0  0  0  0  0  0  0  0  0
   -1.2120   -2.2633    0.0000 C   0  0  0  0  0  0  0  0  0  0  0  0
   -1.2120   -3.7633    0.0000 C   0  0  0  0  0  0  0  0  0  0  0  0
   -2.5120   -4.5133    0.0000 C   0  0  0  0  0  0  0  0  0  0  0  0
    0.0880   -4.5133    0.0000 C   0  0  0  0  0  0  0  0  0  0  0  0
    1.3880   -3.7633    0.0000 C   0  0  0  0  0  0  0  0  0  0  0  0
    1.3880   -2.2633    0.0000 C   0  0  0  0  0  0  0  0  0  0  0  0
    2.6880   -1.5133    0.0000 C   0  0  0  0  0  0  0  0  0  0  0  0
    4.1080   -1.9833    0.0000 C   0  0  0  0  0  0  0  0  0  0  0  0
    4.9980   -0.7633    0.0000 C   0  0  0  0  0  0  0  0  0  0  0  0
    4.1080    0.4467    0.0000 C   0  0  0  0  0  0  0  0  0  0  0  0
    5.4044    1.2014    0.0000 O   0  0  0  0  0  0  0  0  0  0  0  0
    2.6880   -0.0133    0.0000 C   0  0  0  0  0  0  0  0  0  0  0  0
    2.9962    2.9105    0.0000 C   0  0  0  0  0  0  0  0  0  0  0  0
    1.3880    0.7367    0.0000 C   0  0  0  0  0  0  0  0  0  0  0  0
    0.0880   -0.0133    0.0000 C   0  0  0  0  0  0  0  0  0  0  0  0
    0.0880   -1.5133    0.0000 C   0  0  0  0  0  0  0  0  0  0  0  0
   -5.1109   -1.5131    0.0000 O   0  0  0  0  0  0  0  0  0  0  0  0
  1  2  1  0
  1  3  2  0
  3  4  1  0
  4  5  2  0
  5  6  1  0
  6  7  2  0
  1  7  1  0
  6  8  1  0
  8  9  1  0
  9 10  1  0
 10 11  1  0
 11 12  1  0
 12 13  1  0
 13 14  1  0
 14 15  1  0
 14 16  1  0
 11 16  1  0
 16 17  1  1
 16 18  1  0
 18 19  1  0
 19 20  1  0
 10 20  1  0
  5 20  1  0
  3 21  1  0
M  END
>  <cdk:Title>  (622) 
2-Hydroxyestradiol

>  <1A2>  (622) 
N

>  <2A6>  (622) 
N

>  <2B6>  (622) 
N

>  <2C8>  (622) 
N

>  <2C9>  (622) 
N

>  <2C19>  (622) 
N

>  <2D6>  (622) 
N

>  <2E1>  (622) 
N

>  <3A4>  (622) 
N

>  <Citation>  (622) 
Nucleic Acids Res. 2018. Jan 4;46(D1):D608-17. PMID:29140435
Nucleic Acids Res. 2018 Jan 4;46(D1):D1074-D1082. PMID:29126136
Nucleic Acids Res., 45:D380-388 (2017).  PMID:27924025
Nucleic Acids Res. 2016 Jan 4;44(D1):D1202-13. PMID:26400175

>  <ROMol>  (622) 
<rdkit.Chem.rdchem.Mol object at 0x7c2905dc4120>

>  <Drug_like>  (622) 
True

$$$$
(16S)-16-Hydroxy-13_16-secotrachyloba-13-ene-3-one
     RDKit          2D

 22 25  0  0  0  0  0  0  0  0999 V2000
   -7.9760   -2.9143    0.0000 C   0  0  0  0  0  0  0  0  0  0  0  0
   -7.9760   -4.4143    0.0000 C   0  0  0  0  0  0  0  0  0  0  0  0
   -6.6760   -5.1643    0.0000 C   0  0  0  0  0  0  0  0  0  0  0  0
   -5.3760   -4.4143    0.0000 C   0  0  0  0  0  0  0  0  0  0  0  0
   -5.3760   -2.9143    0.0000 C   0  0  0  0  0  0  0  0  0  0  0  0
   -6.6760   -2.1643    0.0000 C   0  0  0  0  0  0  0  0  0  0  0  0
   -4.0760   -2.1643    0.0000 C   0  0  0  0  0  0  0  0  0  0  0  0
   -2.7760   -2.9143    0.0000 C   0  0  0  0  0  0  0  0  0  0  0  0
   -2.7760   -4.4143    0.0000 C   0  0  0  0  0  0  0  0  0  0  0  0
   -4.0760   -5.1643    0.0000 C   0  0  0  0  0  0  0  0  0  0  0  0
   -2.3260   -2.1643    0.0000 C   0  0  0  0  0  0  0  0  0  0  0  0
   -2.3260   -0.6643    0.0000 C   0  0  0  0  0  0  0  0  0  0  0  0
   -2.7760    0.0857    0.0000 C   0  0  0  0  0  0  0  0  0  0  0  0
   -4.0760   -0.6643    0.0000 C   0  0  0  0  0  0  0  0  0  0  0  0
   -1.4860   -0.6643    0.0000 C   0  0  0  0  0  0  0  0  0  0  0  0
   -1.4760   -2.1643    0.0000 C   0  0  0  0  0  0  0  0  0  0  0  0
   -0.4617   -1.3310    0.0000 O   0  0  0  0  0  0  0  0  0  0  0  0
   -0.4616    1.6089    0.0000 C   0  0  0  0  0  0  0  0  0  0  0  0
   -5.3760    0.0257    0.0000 C   0  0  0  0  0  0  0  0  0  0  0  0
   -8.2571   -7.0489    0.0000 C   0  0  0  0  0  0  0  0  0  0  0  0
   -4.7865   -7.4167    0.0000 C   0  0  0  0  0  0  0  0  0  0  0  0
   -9.2749   -5.1645    0.0000 O   0  0  0  0  0  0  0  0  0  0  0  0
  1  2  1  0
  2  3  1  0
  3  4  1  0
  4  5  1  0
  5  6  1  0
  1  6  1  0
  5  7  1  0
  7  8  1  0
  8  9  1  1
  9 10  1  0
  4 10  1  0
  8 11  1  0
 11 12  1  0
 12 13  1  0
 13 14  1  0
  7 14  1  0
 13 15  1  0
 15 16  2  0
  8 16  1  0
 12 17  1  0
 12 18  1  6
  5 19  1  6
  3 20  1  0
  3 21  1  0
  2 22  2  0
M  END
>  <cdk:Title>  (623) 
(16S)-16-Hydroxy-13_16-secotrachyloba-13-ene-3-one

>  <1A2>  (623) 
N

>  <2A6>  (623) 
N

>  <2B6>  (623) 
N

>  <2C8>  (623) 
N

>  <2C9>  (623) 
N

>  <2C19>  (623) 
N

>  <2D6>  (623) 
N

>  <2E1>  (623) 
N

>  <3A4>  (623) 
N

>  <Citation>  (623) 
Nucleic Acids Res. 2018. Jan 4;46(D1):D608-17. PMID:29140435
Nucleic Acids Res. 2018 Jan 4;46(D1):D1074-D1082. PMID:29126136
Nucleic Acids Res., 45:D380-388 (2017).  PMID:27924025
Nucleic Acids Res. 2016 Jan 4;44(D1):D1202-13. PMID:26400175

>  <ROMol>  (623) 
<rdkit.Chem.rdchem.Mol object at 0x7c2905dc4190>

>  <Drug_like>  (623) 
True

$$$$
Homocarnosine
     RDKit          2D

 17 17  0  0  0  0  0  0  0  0999 V2000
    3.2442    6.2970    0.0000 C   0  0  0  0  0  0  0  0  0  0  0  0
    2.7990    4.8646    0.0000 C   0  0  0  0  0  0  0  0  0  0  0  0
    4.2870    4.6749    0.0000 N   0  0  0  0  0  0  0  0  0  0  0  0
    4.8667    3.2915    0.0000 C   0  0  0  0  0  0  0  0  0  0  0  0
    6.3547    3.1018    0.0000 C   0  0  0  0  0  0  0  0  0  0  0  0
    7.1199    1.2757    0.0000 C   0  0  0  0  0  0  0  0  0  0  0  0
    8.6079    1.0860    0.0000 C   0  0  0  0  0  0  0  0  0  0  0  0
    9.1876   -0.2974    0.0000 N   0  0  0  0  0  0  0  0  0  0  0  0
    3.9585    2.0977    0.0000 O   0  0  0  0  0  0  0  0  0  0  0  0
    1.8908    3.6708    0.0000 C   0  0  0  0  0  0  0  0  0  0  0  0
    0.4028    3.8604    0.0000 C   0  0  0  0  0  0  0  0  0  0  0  0
   -0.6293    2.7680    0.0000 C   0  0  0  0  0  0  0  0  0  0  0  0
   -1.9804    3.4083    0.0000 N   0  0  0  0  0  0  0  0  0  0  0  0
   -1.7873    4.8938    0.0000 C   0  0  0  0  0  0  0  0  0  0  0  0
   -0.3162    5.1658    0.0000 N   0  0  0  0  0  0  0  0  0  0  0  0
    2.2262    7.3987    0.0000 O   0  0  0  0  0  0  0  0  0  0  0  0
    4.7072    6.6277    0.0000 O   0  0  0  0  0  0  0  0  0  0  0  0
  1  2  1  0
  2  3  1  0
  3  4  1  0
  4  5  1  0
  5  6  1  0
  6  7  1  0
  7  8  1  0
  4  9  2  0
  2 10  1  0
 10 11  1  0
 11 12  2  0
 12 13  1  0
 13 14  1  0
 14 15  2  0
 11 15  1  0
  1 16  2  0
  1 17  1  0
M  END
>  <cdk:Title>  (624) 
Homocarnosine

>  <1A2>  (624) 
N

>  <2A6>  (624) 
N

>  <2B6>  (624) 
N

>  <2C8>  (624) 
N

>  <2C9>  (624) 
N

>  <2C19>  (624) 
N

>  <2D6>  (624) 
N

>  <2E1>  (624) 
N

>  <3A4>  (624) 
N

>  <Citation>  (624) 
Nucleic Acids Res. 2018. Jan 4;46(D1):D608-17. PMID:29140435
Nucleic Acids Res. 2018 Jan 4;46(D1):D1074-D1082. PMID:29126136
Nucleic Acids Res., 45:D380-388 (2017).  PMID:27924025
Nucleic Acids Res. 2016 Jan 4;44(D1):D1202-13. PMID:26400175

>  <ROMol>  (624) 
<rdkit.Chem.rdchem.Mol object at 0x7c2905dc42e0>

>  <Drug_like>  (624) 
True

$$$$
Methyl 5-(1-propynyl)-2-thiophenepropanoate
     RDKit          2D

 14 14  0  0  0  0  0  0  0  0999 V2000
    5.9025    3.8302    0.0000 C   0  0  0  0  0  0  0  0  0  0  0  0
    4.8960    2.7179    0.0000 C   0  0  0  0  0  0  0  0  0  0  0  0
    3.8895    1.6057    0.0000 C   0  0  0  0  0  0  0  0  0  0  0  0
    2.8831    0.4935    0.0000 C   0  0  0  0  0  0  0  0  0  0  0  0
    3.1947   -0.9662    0.0000 C   0  0  0  0  0  0  0  0  0  0  0  0
    1.8956   -1.7162    0.0000 C   0  0  0  0  0  0  0  0  0  0  0  0
    0.7873   -0.7165    0.0000 C   0  0  0  0  0  0  0  0  0  0  0  0
   -0.6792   -1.0320    0.0000 C   0  0  0  0  0  0  0  0  0  0  0  0
   -1.1391   -2.4597    0.0000 C   0  0  0  0  0  0  0  0  0  0  0  0
   -2.6056   -2.7753    0.0000 C   0  0  0  0  0  0  0  0  0  0  0  0
   -3.6120   -1.6630    0.0000 O   0  0  0  0  0  0  0  0  0  0  0  0
   -3.0656   -4.2030    0.0000 O   0  0  0  0  0  0  0  0  0  0  0  0
   -4.5320   -4.5185    0.0000 C   0  0  0  0  0  0  0  0  0  0  0  0
    1.3902    0.6593    0.0000 S   0  0  0  0  0  0  0  0  0  0  0  0
  1  2  1  0
  2  3  3  0
  3  4  1  0
  4  5  2  0
  5  6  1  0
  6  7  2  0
  7  8  1  0
  8  9  1  0
  9 10  1  0
 10 11  2  0
 10 12  1  0
 12 13  1  0
  7 14  1  0
  4 14  1  0
M  END
>  <cdk:Title>  (625) 
Methyl 5-(1-propynyl)-2-thiophenepropanoate

>  <1A2>  (625) 
N

>  <2A6>  (625) 
N

>  <2B6>  (625) 
N

>  <2C8>  (625) 
N

>  <2C9>  (625) 
N

>  <2C19>  (625) 
N

>  <2D6>  (625) 
N

>  <2E1>  (625) 
N

>  <3A4>  (625) 
N

>  <Citation>  (625) 
Nucleic Acids Res. 2018. Jan 4;46(D1):D608-17. PMID:29140435
Nucleic Acids Res. 2018 Jan 4;46(D1):D1074-D1082. PMID:29126136
Nucleic Acids Res., 45:D380-388 (2017).  PMID:27924025
Nucleic Acids Res. 2016 Jan 4;44(D1):D1202-13. PMID:26400175

>  <ROMol>  (625) 
<rdkit.Chem.rdchem.Mol object at 0x7c2905dc4350>

>  <Drug_like>  (625) 
True

$$$$
Dibenzyl ether
     RDKit          2D

 15 16  0  0  0  0  0  0  0  0999 V2000
    2.6245   -0.4226    0.0000 C   0  0  0  0  0  0  0  0  0  0  0  0
    3.3753    0.8769    0.0000 C   0  0  0  0  0  0  0  0  0  0  0  0
    2.6253    2.1760    0.0000 C   0  0  0  0  0  0  0  0  0  0  0  0
    1.1245    2.1755    0.0000 C   0  0  0  0  0  0  0  0  0  0  0  0
    0.3737    0.8760    0.0000 C   0  0  0  0  0  0  0  0  0  0  0  0
    1.1237   -0.4231    0.0000 C   0  0  0  0  0  0  0  0  0  0  0  0
    0.3745    3.4745    0.0000 C   0  0  0  0  0  0  0  0  0  0  0  0
   -1.6055    3.4745    0.0000 O   0  0  0  0  0  0  0  0  0  0  0  0
   -2.3555    4.7736    0.0000 C   0  0  0  0  0  0  0  0  0  0  0  0
   -3.8555    4.7736    0.0000 C   0  0  0  0  0  0  0  0  0  0  0  0
   -4.6055    3.4736    0.0000 C   0  0  0  0  0  0  0  0  0  0  0  0
   -6.1055    3.4736    0.0000 C   0  0  0  0  0  0  0  0  0  0  0  0
   -6.8555    4.7736    0.0000 C   0  0  0  0  0  0  0  0  0  0  0  0
   -6.1055    6.0736    0.0000 C   0  0  0  0  0  0  0  0  0  0  0  0
   -4.6055    6.0736    0.0000 C   0  0  0  0  0  0  0  0  0  0  0  0
  1  2  2  0
  2  3  1  0
  3  4  2  0
  4  5  1  0
  5  6  2  0
  1  6  1  0
  4  7  1  0
  7  8  1  0
  8  9  1  0
  9 10  1  0
 10 11  2  0
 11 12  1  0
 12 13  2  0
 13 14  1  0
 14 15  2  0
 10 15  1  0
M  END
>  <cdk:Title>  (626) 
Dibenzyl ether

>  <1A2>  (626) 
N

>  <2A6>  (626) 
N

>  <2B6>  (626) 
N

>  <2C8>  (626) 
N

>  <2C9>  (626) 
N

>  <2C19>  (626) 
N

>  <2D6>  (626) 
N

>  <2E1>  (626) 
N

>  <3A4>  (626) 
N

>  <Citation>  (626) 
Nucleic Acids Res. 2018. Jan 4;46(D1):D608-17. PMID:29140435
Nucleic Acids Res. 2018 Jan 4;46(D1):D1074-D1082. PMID:29126136
Nucleic Acids Res., 45:D380-388 (2017).  PMID:27924025
Nucleic Acids Res. 2016 Jan 4;44(D1):D1202-13. PMID:26400175

>  <ROMol>  (626) 
<rdkit.Chem.rdchem.Mol object at 0x7c2905dc43c0>

>  <Drug_like>  (626) 
True

$$$$
11_12-DIMETHOXYDIHYDROKAWAIN
     RDKit          2D

 21 22  0  0  0  0  0  0  0  0999 V2000
   -7.6053    5.5348    0.0000 C   0  0  0  0  0  0  0  0  0  0  0  0
   -6.1282    5.7956    0.0000 O   0  0  0  0  0  0  0  0  0  0  0  0
   -5.1637    4.6467    0.0000 C   0  0  0  0  0  0  0  0  0  0  0  0
   -3.6858    4.9081    0.0000 C   0  0  0  0  0  0  0  0  0  0  0  0
   -2.7214    3.7592    0.0000 C   0  0  0  0  0  0  0  0  0  0  0  0
   -1.0067    2.7692    0.0000 C   0  0  0  0  0  0  0  0  0  0  0  0
    0.2924    3.5192    0.0000 C   0  0  0  0  0  0  0  0  0  0  0  0
    1.5914    2.7692    0.0000 C   0  0  0  0  0  0  0  0  0  0  0  0
    1.5909    1.2684    0.0000 C   0  0  0  0  0  0  0  0  0  0  0  0
    2.8900    0.5184    0.0000 C   0  0  0  0  0  0  0  0  0  0  0  0
    4.1895    1.2692    0.0000 C   0  0  0  0  0  0  0  0  0  0  0  0
    4.1900    2.7701    0.0000 C   0  0  0  0  0  0  0  0  0  0  0  0
    2.8909    3.5201    0.0000 C   0  0  0  0  0  0  0  0  0  0  0  0
    5.4891    3.5199    0.0000 O   0  0  0  0  0  0  0  0  0  0  0  0
    5.4894    5.0199    0.0000 C   0  0  0  0  0  0  0  0  0  0  0  0
    5.4885    0.5192    0.0000 O   0  0  0  0  0  0  0  0  0  0  0  0
    6.7876    1.2692    0.0000 C   0  0  0  0  0  0  0  0  0  0  0  0
   -3.2349    2.3490    0.0000 O   0  0  0  0  0  0  0  0  0  0  0  0
   -4.7128    2.0876    0.0000 C   0  0  0  0  0  0  0  0  0  0  0  0
   -5.6772    3.2364    0.0000 C   0  0  0  0  0  0  0  0  0  0  0  0
   -5.2253    0.6778    0.0000 O   0  0  0  0  0  0  0  0  0  0  0  0
  1  2  1  0
  2  3  1  0
  3  4  1  0
  4  5  1  0
  5  6  1  0
  6  7  1  0
  7  8  1  0
  8  9  2  0
  9 10  1  0
 10 11  2  0
 11 12  1  0
 12 13  2  0
  8 13  1  0
 12 14  1  0
 14 15  1  0
 11 16  1  0
 16 17  1  0
  5 18  1  0
 18 19  1  0
 19 20  1  0
  3 20  2  0
 19 21  2  0
M  END
>  <cdk:Title>  (627) 
11_12-DIMETHOXYDIHYDROKAWAIN

>  <1A2>  (627) 
N

>  <2A6>  (627) 
N

>  <2B6>  (627) 
N

>  <2C8>  (627) 
N

>  <2C9>  (627) 
N

>  <2C19>  (627) 
N

>  <2D6>  (627) 
N

>  <2E1>  (627) 
N

>  <3A4>  (627) 
N

>  <Citation>  (627) 
Nucleic Acids Res. 2018. Jan 4;46(D1):D608-17. PMID:29140435
Nucleic Acids Res. 2018 Jan 4;46(D1):D1074-D1082. PMID:29126136
Nucleic Acids Res., 45:D380-388 (2017).  PMID:27924025
Nucleic Acids Res. 2016 Jan 4;44(D1):D1202-13. PMID:26400175

>  <ROMol>  (627) 
<rdkit.Chem.rdchem.Mol object at 0x7c2905dc4430>

>  <Drug_like>  (627) 
True

$$$$
Homodihydrocapsaicin
     RDKit          2D

 23 23  0  0  0  0  0  0  0  0999 V2000
   -2.1570    5.1376    0.0000 C   0  0  0  0  0  0  0  0  0  0  0  0
   -2.9070    6.4376    0.0000 C   0  0  0  0  0  0  0  0  0  0  0  0
   -4.4070    6.4376    0.0000 C   0  0  0  0  0  0  0  0  0  0  0  0
   -5.1570    5.1376    0.0000 C   0  0  0  0  0  0  0  0  0  0  0  0
   -4.4070    3.8376    0.0000 C   0  0  0  0  0  0  0  0  0  0  0  0
   -2.9070    3.8376    0.0000 C   0  0  0  0  0  0  0  0  0  0  0  0
   -2.1568    2.5387    0.0000 O   0  0  0  0  0  0  0  0  0  0  0  0
   -2.9066    1.2395    0.0000 C   0  0  0  0  0  0  0  0  0  0  0  0
   -6.6570    5.1376    0.0000 C   0  0  0  0  0  0  0  0  0  0  0  0
   -7.4070    6.4366    0.0000 N   0  0  0  0  0  0  0  0  0  0  0  0
   -8.9070    6.4366    0.0000 C   0  0  0  0  0  0  0  0  0  0  0  0
   -9.6570    7.7357    0.0000 C   0  0  0  0  0  0  0  0  0  0  0  0
  -11.6370    7.7357    0.0000 C   0  0  0  0  0  0  0  0  0  0  0  0
  -12.6270    9.4504    0.0000 C   0  0  0  0  0  0  0  0  0  0  0  0
  -14.6070    9.4504    0.0000 C   0  0  0  0  0  0  0  0  0  0  0  0
  -15.5970   11.1651    0.0000 C   0  0  0  0  0  0  0  0  0  0  0  0
  -17.5770   11.1651    0.0000 C   0  0  0  0  0  0  0  0  0  0  0  0
  -18.3270   12.4642    0.0000 C   0  0  0  0  0  0  0  0  0  0  0  0
  -21.2670   12.4642    0.0000 C   0  0  0  0  0  0  0  0  0  0  0  0
  -22.0170   11.1651    0.0000 C   0  0  0  0  0  0  0  0  0  0  0  0
  -20.7565   15.3595    0.0000 C   0  0  0  0  0  0  0  0  0  0  0  0
   -9.6570    5.1376    0.0000 O   0  0  0  0  0  0  0  0  0  0  0  0
   -0.6570    5.1376    0.0000 O   0  0  0  0  0  0  0  0  0  0  0  0
  1  2  2  0
  2  3  1  0
  3  4  2  0
  4  5  1  0
  5  6  2  0
  1  6  1  0
  6  7  1  0
  7  8  1  0
  4  9  1  0
  9 10  1  0
 10 11  1  0
 11 12  1  0
 12 13  1  0
 13 14  1  0
 14 15  1  0
 15 16  1  0
 16 17  1  0
 17 18  1  0
 18 19  1  0
 19 20  1  0
 19 21  1  0
 11 22  2  0
  1 23  1  0
M  END
>  <cdk:Title>  (628) 
Homodihydrocapsaicin

>  <1A2>  (628) 
N

>  <2A6>  (628) 
N

>  <2B6>  (628) 
N

>  <2C8>  (628) 
N

>  <2C9>  (628) 
N

>  <2C19>  (628) 
N

>  <2D6>  (628) 
N

>  <2E1>  (628) 
N

>  <3A4>  (628) 
N

>  <Citation>  (628) 
Nucleic Acids Res. 2018. Jan 4;46(D1):D608-17. PMID:29140435
Nucleic Acids Res. 2018 Jan 4;46(D1):D1074-D1082. PMID:29126136
Nucleic Acids Res., 45:D380-388 (2017).  PMID:27924025
Nucleic Acids Res. 2016 Jan 4;44(D1):D1202-13. PMID:26400175

>  <ROMol>  (628) 
<rdkit.Chem.rdchem.Mol object at 0x7c2905dc44a0>

>  <Drug_like>  (628) 
True

$$$$
Pseudouridine
     RDKit          2D

 17 18  0  0  0  0  0  0  0  0999 V2000
    4.9062    4.2245    0.0000 C   0  0  0  0  0  0  0  0  0  0  0  0
    4.9062    2.7245    0.0000 N   0  0  0  0  0  0  0  0  0  0  0  0
    3.6062    1.9745    0.0000 C   0  0  0  0  0  0  0  0  0  0  0  0
    2.3062    2.7245    0.0000 C   0  0  0  0  0  0  0  0  0  0  0  0
    2.3062    4.2245    0.0000 C   0  0  0  0  0  0  0  0  0  0  0  0
    3.6062    4.9745    0.0000 N   0  0  0  0  0  0  0  0  0  0  0  0
    1.0073    1.9743    0.0000 C   0  0  0  0  0  0  0  0  0  0  0  0
   -0.4143    1.5192    0.0000 C   0  0  0  0  0  0  0  0  0  0  0  0
   -0.7202    2.9877    0.0000 O   0  0  0  0  0  0  0  0  0  0  0  0
   -0.4195    0.0192    0.0000 C   0  0  0  0  0  0  0  0  0  0  0  0
   -1.9108    0.1807    0.0000 O   0  0  0  0  0  0  0  0  0  0  0  0
    0.9989   -0.4457    0.0000 C   0  0  0  0  0  0  0  0  0  0  0  0
    1.8931    0.7612    0.0000 O   0  0  0  0  0  0  0  0  0  0  0  0
    0.1849   -2.2506    0.0000 C   0  0  0  0  0  0  0  0  0  0  0  0
   -1.3076   -2.4002    0.0000 O   0  0  0  0  0  0  0  0  0  0  0  0
    3.6062    0.4745    0.0000 O   0  0  0  0  0  0  0  0  0  0  0  0
    6.2051    4.9747    0.0000 O   0  0  0  0  0  0  0  0  0  0  0  0
  1  2  1  0
  2  3  1  0
  3  4  1  0
  4  5  2  0
  5  6  1  0
  1  6  1  0
  4  7  1  0
  7  8  1  0
  8  9  1  0
  8 10  1  0
 10 11  1  0
 10 12  1  0
 12 13  1  0
  7 13  1  0
 12 14  1  0
 14 15  1  0
  3 16  2  0
  1 17  2  0
M  END
>  <cdk:Title>  (629) 
Pseudouridine

>  <1A2>  (629) 
N

>  <2A6>  (629) 
N

>  <2B6>  (629) 
N

>  <2C8>  (629) 
N

>  <2C9>  (629) 
N

>  <2C19>  (629) 
N

>  <2D6>  (629) 
N

>  <2E1>  (629) 
N

>  <3A4>  (629) 
N

>  <Citation>  (629) 
Nucleic Acids Res. 2018. Jan 4;46(D1):D608-17. PMID:29140435
Nucleic Acids Res. 2018 Jan 4;46(D1):D1074-D1082. PMID:29126136
Nucleic Acids Res., 45:D380-388 (2017).  PMID:27924025
Nucleic Acids Res. 2016 Jan 4;44(D1):D1202-13. PMID:26400175

>  <ROMol>  (629) 
<rdkit.Chem.rdchem.Mol object at 0x7c2905dc4510>

>  <Drug_like>  (629) 
True

$$$$
4-oxo-Retinoic acid
     RDKit          2D

 23 23  0  0  0  0  0  0  0  0999 V2000
    3.6071   -0.1455    0.0000 O   0  0  0  0  0  0  0  0  0  0  0  0
    3.6069   -1.6455    0.0000 C   0  0  0  0  0  0  0  0  0  0  0  0
    4.9064   -2.3963    0.0000 C   0  0  0  0  0  0  0  0  0  0  0  0
    4.9069   -3.8971    0.0000 C   0  0  0  0  0  0  0  0  0  0  0  0
    3.6078   -4.6471    0.0000 C   0  0  0  0  0  0  0  0  0  0  0  0
    2.3083   -3.8963    0.0000 C   0  0  0  0  0  0  0  0  0  0  0  0
    2.3078   -2.3955    0.0000 C   0  0  0  0  0  0  0  0  0  0  0  0
    1.0087   -1.6457    0.0000 C   0  0  0  0  0  0  0  0  0  0  0  0
    0.5936   -4.8863    0.0000 C   0  0  0  0  0  0  0  0  0  0  0  0
   -0.7055   -4.1363    0.0000 C   0  0  0  0  0  0  0  0  0  0  0  0
   -2.0045   -4.8863    0.0000 C   0  0  0  0  0  0  0  0  0  0  0  0
   -2.0045   -6.3863    0.0000 C   0  0  0  0  0  0  0  0  0  0  0  0
   -3.3035   -4.1363    0.0000 C   0  0  0  0  0  0  0  0  0  0  0  0
   -4.6026   -4.8863    0.0000 C   0  0  0  0  0  0  0  0  0  0  0  0
   -5.9016   -4.1363    0.0000 C   0  0  0  0  0  0  0  0  0  0  0  0
   -7.2006   -4.8863    0.0000 C   0  0  0  0  0  0  0  0  0  0  0  0
   -7.2006   -6.3863    0.0000 C   0  0  0  0  0  0  0  0  0  0  0  0
   -8.4997   -4.1363    0.0000 C   0  0  0  0  0  0  0  0  0  0  0  0
   -9.7987   -4.8863    0.0000 C   0  0  0  0  0  0  0  0  0  0  0  0
  -11.0978   -4.1363    0.0000 O   0  0  0  0  0  0  0  0  0  0  0  0
   -9.7987   -6.3863    0.0000 O   0  0  0  0  0  0  0  0  0  0  0  0
    2.6434   -5.7960    0.0000 C   0  0  0  0  0  0  0  0  0  0  0  0
    5.4974   -6.8995    0.0000 C   0  0  0  0  0  0  0  0  0  0  0  0
  1  2  2  0
  2  3  1  0
  3  4  1  0
  4  5  1  0
  5  6  1  0
  6  7  2  0
  2  7  1  0
  7  8  1  0
  6  9  1  0
  9 10  2  0
 10 11  1  0
 11 12  1  0
 11 13  2  0
 13 14  1  0
 14 15  2  0
 15 16  1  0
 16 17  1  0
 16 18  2  0
 18 19  1  0
 19 20  1  0
 19 21  2  0
  5 22  1  0
  5 23  1  0
M  END
>  <cdk:Title>  (630) 
4-oxo-Retinoic acid

>  <1A2>  (630) 
N

>  <2A6>  (630) 
N

>  <2B6>  (630) 
N

>  <2C8>  (630) 
N

>  <2C9>  (630) 
N

>  <2C19>  (630) 
N

>  <2D6>  (630) 
N

>  <2E1>  (630) 
N

>  <3A4>  (630) 
N

>  <Citation>  (630) 
Nucleic Acids Res. 2018. Jan 4;46(D1):D608-17. PMID:29140435
Nucleic Acids Res. 2018 Jan 4;46(D1):D1074-D1082. PMID:29126136
Nucleic Acids Res., 45:D380-388 (2017).  PMID:27924025
Nucleic Acids Res. 2016 Jan 4;44(D1):D1202-13. PMID:26400175

>  <ROMol>  (630) 
<rdkit.Chem.rdchem.Mol object at 0x7c2905dc4580>

>  <Drug_like>  (630) 
True

$$$$
N-Ribosylhistidine
     RDKit          2D

 20 21  0  0  0  0  0  0  0  0999 V2000
    3.9648    1.0510    0.0000 C   0  0  0  0  0  0  0  0  0  0  0  0
    4.7148    2.3500    0.0000 C   0  0  0  0  0  0  0  0  0  0  0  0
    6.1745    2.0384    0.0000 C   0  0  0  0  0  0  0  0  0  0  0  0
    6.3316    0.5505    0.0000 O   0  0  0  0  0  0  0  0  0  0  0  0
    4.9645   -0.0574    0.0000 C   0  0  0  0  0  0  0  0  0  0  0  0
    3.7514   -0.9396    0.0000 N   0  0  0  0  0  0  0  0  0  0  0  0
    3.7542   -2.4439    0.0000 C   0  0  0  0  0  0  0  0  0  0  0  0
    2.3204   -2.9020    0.0000 N   0  0  0  0  0  0  0  0  0  0  0  0
    1.4406   -1.6871    0.0000 C   0  0  0  0  0  0  0  0  0  0  0  0
    2.3289   -0.4758    0.0000 C   0  0  0  0  0  0  0  0  0  0  0  0
   -0.0594   -1.6826    0.0000 C   0  0  0  0  0  0  0  0  0  0  0  0
   -0.8133   -2.9794    0.0000 C   0  0  0  0  0  0  0  0  0  0  0  0
   -2.3133   -2.9749    0.0000 C   0  0  0  0  0  0  0  0  0  0  0  0
   -3.0672   -4.2717    0.0000 O   0  0  0  0  0  0  0  0  0  0  0  0
   -3.0594   -1.6736    0.0000 O   0  0  0  0  0  0  0  0  0  0  0  0
   -1.0782   -4.4558    0.0000 N   0  0  0  0  0  0  0  0  0  0  0  0
    7.6745    2.0384    0.0000 C   0  0  0  0  0  0  0  0  0  0  0  0
    8.4245    3.3375    0.0000 O   0  0  0  0  0  0  0  0  0  0  0  0
    5.1791    3.7763    0.0000 O   0  0  0  0  0  0  0  0  0  0  0  0
    2.3626    2.2143    0.0000 O   0  0  0  0  0  0  0  0  0  0  0  0
  1  2  1  0
  2  3  1  0
  3  4  1  0
  4  5  1  0
  1  5  1  0
  5  6  1  0
  6  7  1  0
  7  8  2  0
  8  9  1  0
  9 10  2  0
  6 10  1  0
  9 11  1  0
 11 12  1  0
 12 13  1  0
 13 14  1  0
 13 15  2  0
 12 16  1  0
  3 17  1  0
 17 18  1  0
  2 19  1  0
  1 20  1  0
M  END
>  <cdk:Title>  (631) 
N-Ribosylhistidine

>  <1A2>  (631) 
N

>  <2A6>  (631) 
N

>  <2B6>  (631) 
N

>  <2C8>  (631) 
N

>  <2C9>  (631) 
N

>  <2C19>  (631) 
N

>  <2D6>  (631) 
N

>  <2E1>  (631) 
N

>  <3A4>  (631) 
N

>  <Citation>  (631) 
Nucleic Acids Res. 2018. Jan 4;46(D1):D608-17. PMID:29140435
Nucleic Acids Res. 2018 Jan 4;46(D1):D1074-D1082. PMID:29126136
Nucleic Acids Res., 45:D380-388 (2017).  PMID:27924025
Nucleic Acids Res. 2016 Jan 4;44(D1):D1202-13. PMID:26400175

>  <ROMol>  (631) 
<rdkit.Chem.rdchem.Mol object at 0x7c2905dc45f0>

>  <Drug_like>  (631) 
True

$$$$
Fructose 6-phosphate
     RDKit          2D

 16 15  0  0  0  0  0  0  0  0999 V2000
   10.3112   -5.2952    0.0000 O   0  0  0  0  0  0  0  0  0  0  0  0
    9.5612   -6.5942    0.0000 C   0  0  0  0  0  0  0  0  0  0  0  0
    8.0612   -6.5942    0.0000 C   0  0  0  0  0  0  0  0  0  0  0  0
    7.3112   -5.2952    0.0000 C   0  0  0  0  0  0  0  0  0  0  0  0
    7.0507   -3.8180    0.0000 O   0  0  0  0  0  0  0  0  0  0  0  0
    5.8112   -5.2952    0.0000 C   0  0  0  0  0  0  0  0  0  0  0  0
    6.0716   -6.7724    0.0000 O   0  0  0  0  0  0  0  0  0  0  0  0
    4.5812   -3.1648    0.0000 C   0  0  0  0  0  0  0  0  0  0  0  0
    4.3207   -1.6876    0.0000 O   0  0  0  0  0  0  0  0  0  0  0  0
    3.0812   -3.1648    0.0000 C   0  0  0  0  0  0  0  0  0  0  0  0
    2.3312   -1.8658    0.0000 O   0  0  0  0  0  0  0  0  0  0  0  0
    0.8312   -1.8658    0.0000 P   0  0  0  0  0  0  0  0  0  0  0  0
    1.0916   -0.3885    0.0000 O   0  0  0  0  0  0  0  0  0  0  0  0
    0.0812   -3.1648    0.0000 O   0  0  0  0  0  0  0  0  0  0  0  0
   -0.5784   -1.3527    0.0000 O   0  0  0  0  0  0  0  0  0  0  0  0
    7.3112   -7.8933    0.0000 O   0  0  0  0  0  0  0  0  0  0  0  0
  1  2  1  0
  2  3  1  0
  3  4  1  0
  4  5  1  0
  4  6  1  0
  6  7  1  0
  6  8  1  0
  8  9  1  0
  8 10  1  0
 10 11  1  0
 11 12  1  0
 12 13  2  0
 12 14  1  0
 12 15  1  0
  3 16  2  0
M  END
>  <cdk:Title>  (632) 
Fructose 6-phosphate

>  <1A2>  (632) 
N

>  <2A6>  (632) 
N

>  <2B6>  (632) 
N

>  <2C8>  (632) 
N

>  <2C9>  (632) 
N

>  <2C19>  (632) 
N

>  <2D6>  (632) 
N

>  <2E1>  (632) 
N

>  <3A4>  (632) 
N

>  <Citation>  (632) 
Nucleic Acids Res. 2018. Jan 4;46(D1):D608-17. PMID:29140435
Nucleic Acids Res. 2018 Jan 4;46(D1):D1074-D1082. PMID:29126136
Nucleic Acids Res., 45:D380-388 (2017).  PMID:27924025
Nucleic Acids Res. 2016 Jan 4;44(D1):D1202-13. PMID:26400175

>  <ROMol>  (632) 
<rdkit.Chem.rdchem.Mol object at 0x7c2905dc46d0>

>  <Drug_like>  (632) 
True

$$$$
2-[({[(1S_2R_5S)-2-isopropyl-5-methylcyclohexyl]oxy}carbonyl)oxy]ethanol
     RDKit          2D

 17 17  0  0  0  0  0  0  0  0999 V2000
   -1.2153   -4.7313    0.0000 C   0  0  0  0  0  0  0  0  0  0  0  0
   -3.1053   -2.4794    0.0000 C   0  0  0  0  0  0  0  0  0  0  0  0
   -4.5825   -2.2191    0.0000 C   0  0  0  0  0  0  0  0  0  0  0  0
   -1.2157   -0.2270    0.0000 C   0  0  0  0  0  0  0  0  0  0  0  0
   -2.5157    0.5230    0.0000 C   0  0  0  0  0  0  0  0  0  0  0  0
   -2.5157    2.0230    0.0000 C   0  0  0  0  0  0  0  0  0  0  0  0
   -1.2157    2.7730    0.0000 C   0  0  0  0  0  0  0  0  0  0  0  0
    0.6738    5.0254    0.0000 C   0  0  0  0  0  0  0  0  0  0  0  0
    0.0843    2.0230    0.0000 C   0  0  0  0  0  0  0  0  0  0  0  0
    0.0843    0.5230    0.0000 C   0  0  0  0  0  0  0  0  0  0  0  0
    0.5970   -0.8866    0.0000 O   0  0  0  0  0  0  0  0  0  0  0  0
    2.0742   -1.1474    0.0000 C   0  0  0  0  0  0  0  0  0  0  0  0
    3.0386    0.0014    0.0000 O   0  0  0  0  0  0  0  0  0  0  0  0
    2.5869   -2.5571    0.0000 O   0  0  0  0  0  0  0  0  0  0  0  0
    4.0640   -2.8179    0.0000 C   0  0  0  0  0  0  0  0  0  0  0  0
    4.5768   -4.2275    0.0000 C   0  0  0  0  0  0  0  0  0  0  0  0
    6.0539   -4.4883    0.0000 O   0  0  0  0  0  0  0  0  0  0  0  0
  1  2  1  0
  2  3  1  0
  2  4  1  0
  4  5  1  0
  5  6  1  0
  6  7  1  0
  7  8  1  0
  7  9  1  0
  9 10  1  0
  4 10  1  0
 10 11  1  0
 11 12  1  0
 12 13  2  0
 12 14  1  0
 14 15  1  0
 15 16  1  0
 16 17  1  0
M  END
>  <cdk:Title>  (633) 
2-[({[(1S_2R_5S)-2-isopropyl-5-methylcyclohexyl]oxy}carbonyl)oxy]ethanol

>  <1A2>  (633) 
N

>  <2A6>  (633) 
N

>  <2B6>  (633) 
N

>  <2C8>  (633) 
N

>  <2C9>  (633) 
N

>  <2C19>  (633) 
N

>  <2D6>  (633) 
N

>  <2E1>  (633) 
N

>  <3A4>  (633) 
N

>  <Citation>  (633) 
Nucleic Acids Res. 2018. Jan 4;46(D1):D608-17. PMID:29140435
Nucleic Acids Res. 2018 Jan 4;46(D1):D1074-D1082. PMID:29126136
Nucleic Acids Res., 45:D380-388 (2017).  PMID:27924025
Nucleic Acids Res. 2016 Jan 4;44(D1):D1202-13. PMID:26400175

>  <ROMol>  (633) 
<rdkit.Chem.rdchem.Mol object at 0x7c2905dc4740>

>  <Drug_like>  (633) 
True

$$$$
UNII-1161a82373
     RDKit          2D

 16 15  0  0  0  0  0  0  0  0999 V2000
    0.5196    1.7400    0.0000 C   0  0  0  0  0  0  0  0  0  0  0  0
    0.5196    0.2400    0.0000 C   0  0  0  0  0  0  0  0  0  0  0  0
   -0.7794   -0.5100    0.0000 C   0  0  0  0  0  0  0  0  0  0  0  0
    1.8187   -0.5100    0.0000 C   0  0  0  0  0  0  0  0  0  0  0  0
    3.1177    0.2400    0.0000 C   0  0  0  0  0  0  0  0  0  0  0  0
    4.8324   -0.7500    0.0000 C   0  0  0  0  0  0  0  0  0  0  0  0
    6.5472    0.2400    0.0000 C   0  0  0  0  0  0  0  0  0  0  0  0
    7.5113    1.3891    0.0000 C   0  0  0  0  0  0  0  0  0  0  0  0
    9.0933   -1.2300    0.0000 C   0  0  0  0  0  0  0  0  0  0  0  0
   11.2237   -0.0000    0.0000 C   0  0  0  0  0  0  0  0  0  0  0  0
   12.5227   -0.7500    0.0000 O   0  0  0  0  0  0  0  0  0  0  0  0
   13.8218   -0.0000    0.0000 C   0  0  0  0  0  0  0  0  0  0  0  0
   15.1208   -0.7500    0.0000 C   0  0  0  0  0  0  0  0  0  0  0  0
   16.4198   -0.0000    0.0000 C   0  0  0  0  0  0  0  0  0  0  0  0
   14.1566   -1.8991    0.0000 C   0  0  0  0  0  0  0  0  0  0  0  0
   13.8218    1.5000    0.0000 O   0  0  0  0  0  0  0  0  0  0  0  0
  1  2  2  0
  2  3  1  0
  2  4  1  0
  4  5  1  0
  5  6  1  0
  6  7  1  0
  7  8  1  0
  7  9  1  0
  9 10  1  0
 10 11  1  0
 11 12  1  0
 12 13  1  0
 13 14  1  0
 13 15  1  0
 12 16  2  0
M  END
>  <cdk:Title>  (634) 
UNII-1161a82373

>  <1A2>  (634) 
N

>  <2A6>  (634) 
N

>  <2B6>  (634) 
N

>  <2C8>  (634) 
N

>  <2C9>  (634) 
N

>  <2C19>  (634) 
N

>  <2D6>  (634) 
N

>  <2E1>  (634) 
N

>  <3A4>  (634) 
N

>  <Citation>  (634) 
Nucleic Acids Res. 2018. Jan 4;46(D1):D608-17. PMID:29140435
Nucleic Acids Res. 2018 Jan 4;46(D1):D1074-D1082. PMID:29126136
Nucleic Acids Res., 45:D380-388 (2017).  PMID:27924025
Nucleic Acids Res. 2016 Jan 4;44(D1):D1202-13. PMID:26400175

>  <ROMol>  (634) 
<rdkit.Chem.rdchem.Mol object at 0x7c2905dc47b0>

>  <Drug_like>  (634) 
True

$$$$
13_14-Dihydro-15-keto-pge2
     RDKit          2D

 25 25  0  0  0  0  0  0  0  0999 V2000
   -1.5528    6.4855    0.0000 O   0  0  0  0  0  0  0  0  0  0  0  0
   -1.8827    5.0222    0.0000 C   0  0  0  0  0  0  0  0  0  0  0  0
   -1.8973    3.5360    0.0000 C   0  0  0  0  0  0  0  0  0  0  0  0
    0.5510    3.7752    0.0000 C   0  0  0  0  0  0  0  0  0  0  0  0
    1.4238    2.5553    0.0000 C   0  0  0  0  0  0  0  0  0  0  0  0
    3.3944    2.7478    0.0000 C   0  0  0  0  0  0  0  0  0  0  0  0
    4.0146    4.1136    0.0000 O   0  0  0  0  0  0  0  0  0  0  0  0
    4.2672    1.5279    0.0000 C   0  0  0  0  0  0  0  0  0  0  0  0
    5.7601    1.6737    0.0000 C   0  0  0  0  0  0  0  0  0  0  0  0
    7.1914   -0.3270    0.0000 C   0  0  0  0  0  0  0  0  0  0  0  0
    8.6843   -0.1811    0.0000 C   0  0  0  0  0  0  0  0  0  0  0  0
    9.5571   -1.4011    0.0000 C   0  0  0  0  0  0  0  0  0  0  0  0
   -3.3249    3.0757    0.0000 C   0  0  0  0  0  0  0  0  0  0  0  0
   -2.3269    0.8272    0.0000 C   0  0  0  0  0  0  0  0  0  0  0  0
   -3.2099   -0.3853    0.0000 C   0  0  0  0  0  0  0  0  0  0  0  0
   -4.7015   -0.2268    0.0000 C   0  0  0  0  0  0  0  0  0  0  0  0
   -5.3101    1.1442    0.0000 C   0  0  0  0  0  0  0  0  0  0  0  0
   -6.8017    1.3027    0.0000 C   0  0  0  0  0  0  0  0  0  0  0  0
   -7.6848    0.0901    0.0000 C   0  0  0  0  0  0  0  0  0  0  0  0
   -9.1764    0.2486    0.0000 C   0  0  0  0  0  0  0  0  0  0  0  0
  -10.0594   -0.9639    0.0000 O   0  0  0  0  0  0  0  0  0  0  0  0
   -9.7849    1.6196    0.0000 O   0  0  0  0  0  0  0  0  0  0  0  0
   -4.2111    4.2925    0.0000 C   0  0  0  0  0  0  0  0  0  0  0  0
   -5.7111    4.2988    0.0000 O   0  0  0  0  0  0  0  0  0  0  0  0
   -3.3105    5.5074    0.0000 C   0  0  0  0  0  0  0  0  0  0  0  0
  1  2  1  0
  2  3  1  0
  3  4  1  0
  4  5  1  0
  5  6  1  0
  6  7  2  0
  6  8  1  0
  8  9  1  0
  9 10  1  0
 10 11  1  0
 11 12  1  0
  3 13  1  0
 13 14  1  0
 14 15  1  0
 15 16  2  0
 16 17  1  0
 17 18  1  0
 18 19  1  0
 19 20  1  0
 20 21  1  0
 20 22  2  0
 13 23  1  0
 23 24  2  0
 23 25  1  0
  2 25  1  0
M  END
>  <cdk:Title>  (635) 
13_14-Dihydro-15-keto-pge2

>  <1A2>  (635) 
N

>  <2A6>  (635) 
N

>  <2B6>  (635) 
N

>  <2C8>  (635) 
N

>  <2C9>  (635) 
N

>  <2C19>  (635) 
N

>  <2D6>  (635) 
N

>  <2E1>  (635) 
N

>  <3A4>  (635) 
N

>  <Citation>  (635) 
Nucleic Acids Res. 2018. Jan 4;46(D1):D608-17. PMID:29140435
Nucleic Acids Res. 2018 Jan 4;46(D1):D1074-D1082. PMID:29126136
Nucleic Acids Res., 45:D380-388 (2017).  PMID:27924025
Nucleic Acids Res. 2016 Jan 4;44(D1):D1202-13. PMID:26400175

>  <ROMol>  (635) 
<rdkit.Chem.rdchem.Mol object at 0x7c2905dc4820>

>  <Drug_like>  (635) 
True

$$$$
(10Z_14E_16E)-10_14_16-Octadecatrien-12-ynoic acid
     RDKit          2D

 20 19  0  0  0  0  0  0  0  0999 V2000
    6.8084   -5.8095    0.0000 C   0  0  0  0  0  0  0  0  0  0  0  0
    7.5584   -7.1085    0.0000 C   0  0  0  0  0  0  0  0  0  0  0  0
    9.0584   -7.1085    0.0000 C   0  0  0  0  0  0  0  0  0  0  0  0
    9.8084   -8.4076    0.0000 C   0  0  0  0  0  0  0  0  0  0  0  0
   11.3084   -8.4076    0.0000 C   0  0  0  0  0  0  0  0  0  0  0  0
   12.0584   -9.7066    0.0000 C   0  0  0  0  0  0  0  0  0  0  0  0
   12.8084  -11.0056    0.0000 C   0  0  0  0  0  0  0  0  0  0  0  0
   13.5584  -12.3047    0.0000 C   0  0  0  0  0  0  0  0  0  0  0  0
   15.0584  -12.3047    0.0000 C   0  0  0  0  0  0  0  0  0  0  0  0
   15.8084  -11.0056    0.0000 C   0  0  0  0  0  0  0  0  0  0  0  0
   17.7884  -11.0056    0.0000 C   0  0  0  0  0  0  0  0  0  0  0  0
   18.7784   -9.2909    0.0000 C   0  0  0  0  0  0  0  0  0  0  0  0
   20.7584   -9.2909    0.0000 C   0  0  0  0  0  0  0  0  0  0  0  0
   21.7484   -7.5762    0.0000 C   0  0  0  0  0  0  0  0  0  0  0  0
   23.7284   -7.5762    0.0000 C   0  0  0  0  0  0  0  0  0  0  0  0
   24.7184   -5.8614    0.0000 C   0  0  0  0  0  0  0  0  0  0  0  0
   26.2184   -5.8614    0.0000 C   0  0  0  0  0  0  0  0  0  0  0  0
   26.9684   -4.5624    0.0000 C   0  0  0  0  0  0  0  0  0  0  0  0
   26.2184   -3.2634    0.0000 O   0  0  0  0  0  0  0  0  0  0  0  0
   28.4684   -4.5624    0.0000 O   0  0  0  0  0  0  0  0  0  0  0  0
  1  2  1  0
  2  3  2  0
  3  4  1  0
  4  5  2  0
  5  6  1  0
  6  7  3  0
  7  8  1  0
  8  9  2  0
  9 10  1  0
 10 11  1  0
 11 12  1  0
 12 13  1  0
 13 14  1  0
 14 15  1  0
 15 16  1  0
 16 17  1  0
 17 18  1  0
 18 19  2  0
 18 20  1  0
M  END
>  <cdk:Title>  (636) 
(10Z_14E_16E)-10_14_16-Octadecatrien-12-ynoic acid

>  <1A2>  (636) 
N

>  <2A6>  (636) 
N

>  <2B6>  (636) 
N

>  <2C8>  (636) 
N

>  <2C9>  (636) 
N

>  <2C19>  (636) 
N

>  <2D6>  (636) 
N

>  <2E1>  (636) 
N

>  <3A4>  (636) 
N

>  <Citation>  (636) 
Nucleic Acids Res. 2018. Jan 4;46(D1):D608-17. PMID:29140435
Nucleic Acids Res. 2018 Jan 4;46(D1):D1074-D1082. PMID:29126136
Nucleic Acids Res., 45:D380-388 (2017).  PMID:27924025
Nucleic Acids Res. 2016 Jan 4;44(D1):D1202-13. PMID:26400175

>  <ROMol>  (636) 
<rdkit.Chem.rdchem.Mol object at 0x7c2905dc4890>

>  <Drug_like>  (636) 
True

$$$$
Geranyl valerate
     RDKit          2D

 17 16  0  0  0  0  0  0  0  0999 V2000
    7.1447   -0.8850    0.0000 C   0  0  0  0  0  0  0  0  0  0  0  0
    8.4437   -1.6350    0.0000 C   0  0  0  0  0  0  0  0  0  0  0  0
    8.4437   -3.1350    0.0000 C   0  0  0  0  0  0  0  0  0  0  0  0
   10.1585   -4.1250    0.0000 C   0  0  0  0  0  0  0  0  0  0  0  0
   10.1585   -5.6250    0.0000 C   0  0  0  0  0  0  0  0  0  0  0  0
    8.8594   -6.3750    0.0000 O   0  0  0  0  0  0  0  0  0  0  0  0
   11.4575   -6.3750    0.0000 O   0  0  0  0  0  0  0  0  0  0  0  0
   11.4575   -7.8750    0.0000 C   0  0  0  0  0  0  0  0  0  0  0  0
   12.7566   -8.6250    0.0000 C   0  0  0  0  0  0  0  0  0  0  0  0
   14.0556   -7.8750    0.0000 C   0  0  0  0  0  0  0  0  0  0  0  0
   15.3546   -8.6250    0.0000 C   0  0  0  0  0  0  0  0  0  0  0  0
   14.0556   -6.3750    0.0000 C   0  0  0  0  0  0  0  0  0  0  0  0
   15.3546   -5.6250    0.0000 C   0  0  0  0  0  0  0  0  0  0  0  0
   15.3546   -4.1250    0.0000 C   0  0  0  0  0  0  0  0  0  0  0  0
   16.6537   -3.3750    0.0000 C   0  0  0  0  0  0  0  0  0  0  0  0
   16.6537   -1.8750    0.0000 C   0  0  0  0  0  0  0  0  0  0  0  0
   17.9527   -4.1250    0.0000 C   0  0  0  0  0  0  0  0  0  0  0  0
  1  2  1  0
  2  3  1  0
  3  4  1  0
  4  5  1  0
  5  6  2  0
  5  7  1  0
  7  8  1  0
  8  9  1  0
  9 10  2  0
 10 11  1  0
 10 12  1  0
 12 13  1  0
 13 14  1  0
 14 15  2  0
 15 16  1  0
 15 17  1  0
M  END
>  <cdk:Title>  (637) 
Geranyl valerate

>  <1A2>  (637) 
N

>  <2A6>  (637) 
N

>  <2B6>  (637) 
N

>  <2C8>  (637) 
N

>  <2C9>  (637) 
N

>  <2C19>  (637) 
N

>  <2D6>  (637) 
N

>  <2E1>  (637) 
N

>  <3A4>  (637) 
N

>  <Citation>  (637) 
Nucleic Acids Res. 2018. Jan 4;46(D1):D608-17. PMID:29140435
Nucleic Acids Res. 2018 Jan 4;46(D1):D1074-D1082. PMID:29126136
Nucleic Acids Res., 45:D380-388 (2017).  PMID:27924025
Nucleic Acids Res. 2016 Jan 4;44(D1):D1202-13. PMID:26400175

>  <ROMol>  (637) 
<rdkit.Chem.rdchem.Mol object at 0x7c2905dc49e0>

>  <Drug_like>  (637) 
True

$$$$
(e)-beta-Ocimene
     RDKit          2D

 10  9  0  0  0  0  0  0  0  0999 V2000
    6.4952   -2.1595    0.0000 C   0  0  0  0  0  0  0  0  0  0  0  0
    7.7942   -1.4095    0.0000 C   0  0  0  0  0  0  0  0  0  0  0  0
    9.0933   -2.1595    0.0000 C   0  0  0  0  0  0  0  0  0  0  0  0
   10.3923   -1.4095    0.0000 C   0  0  0  0  0  0  0  0  0  0  0  0
    7.7942    0.0905    0.0000 C   0  0  0  0  0  0  0  0  0  0  0  0
    5.1962   -1.4095    0.0000 C   0  0  0  0  0  0  0  0  0  0  0  0
    3.8971   -2.1595    0.0000 C   0  0  0  0  0  0  0  0  0  0  0  0
    2.5981   -1.4095    0.0000 C   0  0  0  0  0  0  0  0  0  0  0  0
    1.2990   -2.1595    0.0000 C   0  0  0  0  0  0  0  0  0  0  0  0
    2.5981    0.0905    0.0000 C   0  0  0  0  0  0  0  0  0  0  0  0
  1  2  2  0
  2  3  1  0
  3  4  2  0
  2  5  1  0
  1  6  1  0
  6  7  1  0
  7  8  2  0
  8  9  1  0
  8 10  1  0
M  END
>  <cdk:Title>  (638) 
(e)-beta-Ocimene

>  <1A2>  (638) 
N

>  <2A6>  (638) 
N

>  <2B6>  (638) 
N

>  <2C8>  (638) 
N

>  <2C9>  (638) 
N

>  <2C19>  (638) 
N

>  <2D6>  (638) 
N

>  <2E1>  (638) 
N

>  <3A4>  (638) 
N

>  <Citation>  (638) 
Nucleic Acids Res. 2018. Jan 4;46(D1):D608-17. PMID:29140435
Nucleic Acids Res. 2018 Jan 4;46(D1):D1074-D1082. PMID:29126136
Nucleic Acids Res., 45:D380-388 (2017).  PMID:27924025
Nucleic Acids Res. 2016 Jan 4;44(D1):D1202-13. PMID:26400175

>  <ROMol>  (638) 
<rdkit.Chem.rdchem.Mol object at 0x7c2905dc4a50>

>  <Drug_like>  (638) 
True

$$$$
Maritimetin
     RDKit          2D

 21 23  0  0  0  0  0  0  0  0999 V2000
    8.6008   -2.5978    0.0000 O   0  0  0  0  0  0  0  0  0  0  0  0
    7.1008   -2.5976    0.0000 C   0  0  0  0  0  0  0  0  0  0  0  0
    6.3508   -1.2986    0.0000 C   0  0  0  0  0  0  0  0  0  0  0  0
    4.8500   -1.2990    0.0000 C   0  0  0  0  0  0  0  0  0  0  0  0
    4.1000    0.0000    0.0000 C   0  0  0  0  0  0  0  0  0  0  0  0
    2.6000    0.0000    0.0000 C   0  0  0  0  0  0  0  0  0  0  0  0
    1.7200    1.2100    0.0000 C   0  0  0  0  0  0  0  0  0  0  0  0
    2.1853    2.6360    0.0000 O   0  0  0  0  0  0  0  0  0  0  0  0
    0.2900    0.7500    0.0000 C   0  0  0  0  0  0  0  0  0  0  0  0
   -1.0100    1.5000    0.0000 C   0  0  0  0  0  0  0  0  0  0  0  0
   -2.3100    0.7500    0.0000 C   0  0  0  0  0  0  0  0  0  0  0  0
   -2.3100   -0.7500    0.0000 C   0  0  0  0  0  0  0  0  0  0  0  0
   -3.6089   -1.5002    0.0000 O   0  0  0  0  0  0  0  0  0  0  0  0
   -1.0100   -1.5000    0.0000 C   0  0  0  0  0  0  0  0  0  0  0  0
    0.2900   -0.7500    0.0000 C   0  0  0  0  0  0  0  0  0  0  0  0
    1.7200   -1.2100    0.0000 O   0  0  0  0  0  0  0  0  0  0  0  0
   -1.0100   -3.0000    0.0000 O   0  0  0  0  0  0  0  0  0  0  0  0
    4.0992   -2.5986    0.0000 C   0  0  0  0  0  0  0  0  0  0  0  0
    4.8492   -3.8976    0.0000 C   0  0  0  0  0  0  0  0  0  0  0  0
    6.3500   -3.8971    0.0000 C   0  0  0  0  0  0  0  0  0  0  0  0
    7.1000   -5.1962    0.0000 O   0  0  0  0  0  0  0  0  0  0  0  0
  1  2  1  0
  2  3  2  0
  3  4  1  0
  4  5  1  0
  5  6  2  0
  6  7  1  0
  7  8  2  0
  7  9  1  0
  9 10  2  0
 10 11  1  0
 11 12  2  0
 12 13  1  0
 12 14  1  0
 14 15  2  0
  9 15  1  0
 15 16  1  0
  6 16  1  0
 14 17  1  0
  4 18  2  0
 18 19  1  0
 19 20  2  0
  2 20  1  0
 20 21  1  0
M  END
>  <cdk:Title>  (639) 
Maritimetin

>  <1A2>  (639) 
N

>  <2A6>  (639) 
N

>  <2B6>  (639) 
N

>  <2C8>  (639) 
N

>  <2C9>  (639) 
N

>  <2C19>  (639) 
N

>  <2D6>  (639) 
N

>  <2E1>  (639) 
N

>  <3A4>  (639) 
N

>  <Citation>  (639) 
Nucleic Acids Res. 2018. Jan 4;46(D1):D608-17. PMID:29140435
Nucleic Acids Res. 2018 Jan 4;46(D1):D1074-D1082. PMID:29126136
Nucleic Acids Res., 45:D380-388 (2017).  PMID:27924025
Nucleic Acids Res. 2016 Jan 4;44(D1):D1202-13. PMID:26400175

>  <ROMol>  (639) 
<rdkit.Chem.rdchem.Mol object at 0x7c2905dc4ba0>

>  <Drug_like>  (639) 
True

$$$$
R-7-Hydroxywarfarin
     RDKit          2D

 24 26  0  0  0  0  0  0  0  0999 V2000
    3.7304    4.1740    0.0000 O   0  0  0  0  0  0  0  0  0  0  0  0
    4.6955    3.0246    0.0000 C   0  0  0  0  0  0  0  0  0  0  0  0
    6.6454    3.3687    0.0000 O   0  0  0  0  0  0  0  0  0  0  0  0
    4.1825    1.6150    0.0000 C   0  0  0  0  0  0  0  0  0  0  0  0
    6.0719   -0.6375    0.0000 C   0  0  0  0  0  0  0  0  0  0  0  0
    7.3711    0.1123    0.0000 C   0  0  0  0  0  0  0  0  0  0  0  0
    8.6700   -0.6379    0.0000 C   0  0  0  0  0  0  0  0  0  0  0  0
    8.6697   -2.1379    0.0000 O   0  0  0  0  0  0  0  0  0  0  0  0
    9.9691    0.1119    0.0000 C   0  0  0  0  0  0  0  0  0  0  0  0
    4.1817   -2.8893    0.0000 C   0  0  0  0  0  0  0  0  0  0  0  0
    4.6953   -4.2996    0.0000 C   0  0  0  0  0  0  0  0  0  0  0  0
    3.7309   -5.4485    0.0000 C   0  0  0  0  0  0  0  0  0  0  0  0
    2.2530   -5.1871    0.0000 C   0  0  0  0  0  0  0  0  0  0  0  0
    1.7395   -3.7769    0.0000 C   0  0  0  0  0  0  0  0  0  0  0  0
    2.7038   -2.6280    0.0000 C   0  0  0  0  0  0  0  0  0  0  0  0
    2.7044    1.3549    0.0000 C   0  0  0  0  0  0  0  0  0  0  0  0
    2.1913   -0.0547    0.0000 O   0  0  0  0  0  0  0  0  0  0  0  0
    1.7393    2.5043    0.0000 C   0  0  0  0  0  0  0  0  0  0  0  0
    2.2523    3.9138    0.0000 C   0  0  0  0  0  0  0  0  0  0  0  0
    1.2872    5.0632    0.0000 C   0  0  0  0  0  0  0  0  0  0  0  0
   -0.1909    4.8031    0.0000 C   0  0  0  0  0  0  0  0  0  0  0  0
   -0.7039    3.3935    0.0000 C   0  0  0  0  0  0  0  0  0  0  0  0
    0.2611    2.2441    0.0000 C   0  0  0  0  0  0  0  0  0  0  0  0
   -1.1549    5.9523    0.0000 O   0  0  0  0  0  0  0  0  0  0  0  0
  1  2  1  0
  2  3  1  0
  2  4  2  0
  4  5  1  0
  5  6  1  0
  6  7  1  0
  7  8  2  0
  7  9  1  0
  5 10  1  0
 10 11  2  0
 11 12  1  0
 12 13  2  0
 13 14  1  0
 14 15  2  0
 10 15  1  0
  4 16  1  0
 16 17  2  0
 16 18  1  0
 18 19  2  0
  1 19  1  0
 19 20  1  0
 20 21  2  0
 21 22  1  0
 22 23  2  0
 18 23  1  0
 21 24  1  0
M  END
>  <cdk:Title>  (640) 
R-7-Hydroxywarfarin

>  <1A2>  (640) 
N

>  <2A6>  (640) 
N

>  <2B6>  (640) 
N

>  <2C8>  (640) 
N

>  <2C9>  (640) 
N

>  <2C19>  (640) 
N

>  <2D6>  (640) 
N

>  <2E1>  (640) 
N

>  <3A4>  (640) 
N

>  <Citation>  (640) 
Nucleic Acids Res. 2018. Jan 4;46(D1):D608-17. PMID:29140435
Nucleic Acids Res. 2018 Jan 4;46(D1):D1074-D1082. PMID:29126136
Nucleic Acids Res., 45:D380-388 (2017).  PMID:27924025
Nucleic Acids Res. 2016 Jan 4;44(D1):D1202-13. PMID:26400175

>  <ROMol>  (640) 
<rdkit.Chem.rdchem.Mol object at 0x7c2905dc4c10>

>  <Drug_like>  (640) 
True

$$$$
7a_12b-Dihydroxy-5b-cholan-24-Oic acid
     RDKit          2D

 28 31  0  0  0  0  0  0  0  0999 V2000
    0.9704   -3.3948    0.0000 O   0  0  0  0  0  0  0  0  0  0  0  0
    0.0064   -4.5439    0.0000 C   0  0  0  0  0  0  0  0  0  0  0  0
    1.3064   -5.2939    0.0000 C   0  0  0  0  0  0  0  0  0  0  0  0
    1.3064   -6.7939    0.0000 C   0  0  0  0  0  0  0  0  0  0  0  0
    0.0064   -7.5439    0.0000 C   0  0  0  0  0  0  0  0  0  0  0  0
   -1.2936   -6.7939    0.0000 C   0  0  0  0  0  0  0  0  0  0  0  0
   -2.5936   -7.5439    0.0000 C   0  0  0  0  0  0  0  0  0  0  0  0
   -2.5936   -9.0439    0.0000 C   0  0  0  0  0  0  0  0  0  0  0  0
   -1.2936   -9.7939    0.0000 C   0  0  0  0  0  0  0  0  0  0  0  0
    0.0064   -9.0439    0.0000 C   0  0  0  0  0  0  0  0  0  0  0  0
    0.5191  -10.4536    0.0000 O   0  0  0  0  0  0  0  0  0  0  0  0
   -3.8936   -9.7939    0.0000 C   0  0  0  0  0  0  0  0  0  0  0  0
   -5.1936   -9.0439    0.0000 C   0  0  0  0  0  0  0  0  0  0  0  0
   -5.1936   -7.5439    0.0000 C   0  0  0  0  0  0  0  0  0  0  0  0
   -3.8936   -6.7939    0.0000 C   0  0  0  0  0  0  0  0  0  0  0  0
   -2.5936   -4.6039    0.0000 C   0  0  0  0  0  0  0  0  0  0  0  0
   -1.2936   -5.2939    0.0000 C   0  0  0  0  0  0  0  0  0  0  0  0
    2.7364   -7.2539    0.0000 C   0  0  0  0  0  0  0  0  0  0  0  0
    3.6164   -6.0439    0.0000 C   0  0  0  0  0  0  0  0  0  0  0  0
    2.7364   -4.8339    0.0000 C   0  0  0  0  0  0  0  0  0  0  0  0
    5.2835   -3.3656    0.0000 C   0  0  0  0  0  0  0  0  0  0  0  0
    5.2854   -0.4256    0.0000 C   0  0  0  0  0  0  0  0  0  0  0  0
    6.5849    0.3235    0.0000 C   0  0  0  0  0  0  0  0  0  0  0  0
    6.5859    1.8235    0.0000 C   0  0  0  0  0  0  0  0  0  0  0  0
    7.8855    2.5727    0.0000 O   0  0  0  0  0  0  0  0  0  0  0  0
    5.2874    2.5744    0.0000 O   0  0  0  0  0  0  0  0  0  0  0  0
    5.9594   -5.2267    0.0000 C   0  0  0  0  0  0  0  0  0  0  0  0
    1.6175   -2.3705    0.0000 C   0  0  0  0  0  0  0  0  0  0  0  0
  1  2  1  0
  2  3  1  0
  3  4  1  0
  4  5  1  0
  5  6  1  0
  6  7  1  0
  7  8  1  0
  8  9  1  0
  9 10  1  0
  5 10  1  0
 10 11  1  0
  8 12  1  0
 12 13  1  0
 13 14  1  0
 14 15  1  0
  7 15  1  0
  7 16  1  1
  6 17  1  0
  2 17  1  0
  4 18  1  0
 18 19  1  0
 19 20  1  0
  3 20  1  0
 20 21  1  0
 21 22  1  0
 22 23  1  0
 23 24  1  0
 24 25  1  0
 24 26  2  0
 21 27  1  0
  3 28  1  1
M  END
>  <cdk:Title>  (641) 
7a_12b-Dihydroxy-5b-cholan-24-Oic acid

>  <1A2>  (641) 
N

>  <2A6>  (641) 
N

>  <2B6>  (641) 
N

>  <2C8>  (641) 
N

>  <2C9>  (641) 
N

>  <2C19>  (641) 
N

>  <2D6>  (641) 
N

>  <2E1>  (641) 
N

>  <3A4>  (641) 
N

>  <Citation>  (641) 
Nucleic Acids Res. 2018. Jan 4;46(D1):D608-17. PMID:29140435
Nucleic Acids Res. 2018 Jan 4;46(D1):D1074-D1082. PMID:29126136
Nucleic Acids Res., 45:D380-388 (2017).  PMID:27924025
Nucleic Acids Res. 2016 Jan 4;44(D1):D1202-13. PMID:26400175

>  <ROMol>  (641) 
<rdkit.Chem.rdchem.Mol object at 0x7c2905dc4c80>

>  <Drug_like>  (641) 
True

$$$$
Ornithine
     RDKit          2D

  9  8  0  0  0  0  0  0  0  0999 V2000
    1.7667   -0.8486    0.0000 C   0  0  0  0  0  0  0  0  0  0  0  0
    3.0657   -0.0986    0.0000 C   0  0  0  0  0  0  0  0  0  0  0  0
    5.1962   -1.3286    0.0000 C   0  0  0  0  0  0  0  0  0  0  0  0
    6.4952   -0.5786    0.0000 C   0  0  0  0  0  0  0  0  0  0  0  0
    7.4594    0.5705    0.0000 N   0  0  0  0  0  0  0  0  0  0  0  0
    7.7942   -1.3286    0.0000 C   0  0  0  0  0  0  0  0  0  0  0  0
    7.7942   -2.8286    0.0000 O   0  0  0  0  0  0  0  0  0  0  0  0
    9.0933   -0.5786    0.0000 O   0  0  0  0  0  0  0  0  0  0  0  0
    0.4677   -0.0986    0.0000 N   0  0  0  0  0  0  0  0  0  0  0  0
  1  2  1  0
  2  3  1  0
  3  4  1  0
  4  5  1  0
  4  6  1  0
  6  7  2  0
  6  8  1  0
  1  9  1  0
M  END
>  <cdk:Title>  (642) 
Ornithine

>  <1A2>  (642) 
N

>  <2A6>  (642) 
N

>  <2B6>  (642) 
N

>  <2C8>  (642) 
N

>  <2C9>  (642) 
N

>  <2C19>  (642) 
N

>  <2D6>  (642) 
N

>  <2E1>  (642) 
N

>  <3A4>  (642) 
N

>  <Citation>  (642) 
Nucleic Acids Res. 2018. Jan 4;46(D1):D608-17. PMID:29140435
Nucleic Acids Res. 2018 Jan 4;46(D1):D1074-D1082. PMID:29126136
Nucleic Acids Res., 45:D380-388 (2017).  PMID:27924025
Nucleic Acids Res. 2016 Jan 4;44(D1):D1202-13. PMID:26400175

>  <ROMol>  (642) 
<rdkit.Chem.rdchem.Mol object at 0x7c2905dc4cf0>

>  <Drug_like>  (642) 
True

$$$$
Vanilpyruvic acid
     RDKit          2D

 15 15  0  0  0  0  0  0  0  0999 V2000
    4.5726    1.0708    0.0000 C   0  0  0  0  0  0  0  0  0  0  0  0
    3.8224   -0.2281    0.0000 O   0  0  0  0  0  0  0  0  0  0  0  0
    2.3224   -0.2278    0.0000 C   0  0  0  0  0  0  0  0  0  0  0  0
    1.5715   -1.5274    0.0000 C   0  0  0  0  0  0  0  0  0  0  0  0
    0.0707   -1.5278    0.0000 C   0  0  0  0  0  0  0  0  0  0  0  0
   -0.6793   -0.2288    0.0000 C   0  0  0  0  0  0  0  0  0  0  0  0
    0.0715    1.0707    0.0000 C   0  0  0  0  0  0  0  0  0  0  0  0
    1.5724    1.0712    0.0000 C   0  0  0  0  0  0  0  0  0  0  0  0
   -0.6785    2.3698    0.0000 C   0  0  0  0  0  0  0  0  0  0  0  0
   -2.1785    2.3698    0.0000 C   0  0  0  0  0  0  0  0  0  0  0  0
   -2.9285    1.0707    0.0000 O   0  0  0  0  0  0  0  0  0  0  0  0
   -2.9285    3.6688    0.0000 C   0  0  0  0  0  0  0  0  0  0  0  0
   -2.1785    4.9678    0.0000 O   0  0  0  0  0  0  0  0  0  0  0  0
   -4.4285    3.6688    0.0000 O   0  0  0  0  0  0  0  0  0  0  0  0
    2.3215   -2.8264    0.0000 O   0  0  0  0  0  0  0  0  0  0  0  0
  1  2  1  0
  2  3  1  0
  3  4  2  0
  4  5  1  0
  5  6  2  0
  6  7  1  0
  7  8  2  0
  3  8  1  0
  7  9  1  0
  9 10  1  0
 10 11  2  0
 10 12  1  0
 12 13  2  0
 12 14  1  0
  4 15  1  0
M  END
>  <cdk:Title>  (643) 
Vanilpyruvic acid

>  <1A2>  (643) 
N

>  <2A6>  (643) 
N

>  <2B6>  (643) 
N

>  <2C8>  (643) 
N

>  <2C9>  (643) 
N

>  <2C19>  (643) 
N

>  <2D6>  (643) 
N

>  <2E1>  (643) 
N

>  <3A4>  (643) 
N

>  <Citation>  (643) 
Nucleic Acids Res. 2018. Jan 4;46(D1):D608-17. PMID:29140435
Nucleic Acids Res. 2018 Jan 4;46(D1):D1074-D1082. PMID:29126136
Nucleic Acids Res., 45:D380-388 (2017).  PMID:27924025
Nucleic Acids Res. 2016 Jan 4;44(D1):D1202-13. PMID:26400175

>  <ROMol>  (643) 
<rdkit.Chem.rdchem.Mol object at 0x7c2905dc4d60>

>  <Drug_like>  (643) 
True

$$$$
2_4_12-Octadecatrienoic acid piperidide
     RDKit          2D

 25 25  0  0  0  0  0  0  0  0999 V2000
   21.3562  -11.6900    0.0000 C   0  0  0  0  0  0  0  0  0  0  0  0
   20.0572  -12.4400    0.0000 C   0  0  0  0  0  0  0  0  0  0  0  0
   18.7582  -11.6900    0.0000 C   0  0  0  0  0  0  0  0  0  0  0  0
   16.6277  -12.9200    0.0000 C   0  0  0  0  0  0  0  0  0  0  0  0
   15.3287  -12.1700    0.0000 C   0  0  0  0  0  0  0  0  0  0  0  0
   14.0297  -12.9200    0.0000 C   0  0  0  0  0  0  0  0  0  0  0  0
   12.7306  -12.1700    0.0000 C   0  0  0  0  0  0  0  0  0  0  0  0
   11.4316  -12.9200    0.0000 C   0  0  0  0  0  0  0  0  0  0  0  0
   10.1325  -12.1700    0.0000 C   0  0  0  0  0  0  0  0  0  0  0  0
    8.4178  -13.1600    0.0000 C   0  0  0  0  0  0  0  0  0  0  0  0
    6.7031  -12.1700    0.0000 C   0  0  0  0  0  0  0  0  0  0  0  0
    4.5727  -13.4000    0.0000 C   0  0  0  0  0  0  0  0  0  0  0  0
    3.2736  -12.6500    0.0000 C   0  0  0  0  0  0  0  0  0  0  0  0
    1.9746  -13.4000    0.0000 C   0  0  0  0  0  0  0  0  0  0  0  0
    0.6755  -12.6500    0.0000 C   0  0  0  0  0  0  0  0  0  0  0  0
    0.6755  -11.1500    0.0000 C   0  0  0  0  0  0  0  0  0  0  0  0
   -0.6235  -10.4000    0.0000 C   0  0  0  0  0  0  0  0  0  0  0  0
   -0.6235   -8.9000    0.0000 C   0  0  0  0  0  0  0  0  0  0  0  0
   -1.9225   -8.1500    0.0000 N   0  0  0  0  0  0  0  0  0  0  0  0
   -1.9221   -6.6491    0.0000 C   0  0  0  0  0  0  0  0  0  0  0  0
   -3.2211   -5.8991    0.0000 C   0  0  0  0  0  0  0  0  0  0  0  0
   -4.5206   -6.6500    0.0000 C   0  0  0  0  0  0  0  0  0  0  0  0
   -4.5211   -8.1508    0.0000 C   0  0  0  0  0  0  0  0  0  0  0  0
   -3.2221   -8.9008    0.0000 C   0  0  0  0  0  0  0  0  0  0  0  0
    0.6755   -8.1500    0.0000 O   0  0  0  0  0  0  0  0  0  0  0  0
  1  2  1  0
  2  3  1  0
  3  4  1  0
  4  5  1  0
  5  6  1  0
  6  7  2  0
  7  8  1  0
  8  9  1  0
  9 10  1  0
 10 11  1  0
 11 12  1  0
 12 13  1  0
 13 14  1  0
 14 15  2  0
 15 16  1  0
 16 17  2  0
 17 18  1  0
 18 19  1  0
 19 20  1  0
 20 21  1  0
 21 22  1  0
 22 23  1  0
 23 24  1  0
 19 24  1  0
 18 25  2  0
M  END
>  <cdk:Title>  (644) 
2_4_12-Octadecatrienoic acid piperidide

>  <1A2>  (644) 
N

>  <2A6>  (644) 
N

>  <2B6>  (644) 
N

>  <2C8>  (644) 
N

>  <2C9>  (644) 
N

>  <2C19>  (644) 
N

>  <2D6>  (644) 
N

>  <2E1>  (644) 
N

>  <3A4>  (644) 
N

>  <Citation>  (644) 
Nucleic Acids Res. 2018. Jan 4;46(D1):D608-17. PMID:29140435
Nucleic Acids Res. 2018 Jan 4;46(D1):D1074-D1082. PMID:29126136
Nucleic Acids Res., 45:D380-388 (2017).  PMID:27924025
Nucleic Acids Res. 2016 Jan 4;44(D1):D1202-13. PMID:26400175

>  <ROMol>  (644) 
<rdkit.Chem.rdchem.Mol object at 0x7c2905dc4dd0>

>  <Drug_like>  (644) 
True

$$$$
Guaiacol
     RDKit          2D

  9  9  0  0  0  0  0  0  0  0999 V2000
    0.9768   -0.5622    0.0000 C   0  0  0  0  0  0  0  0  0  0  0  0
    2.2768   -1.3122    0.0000 C   0  0  0  0  0  0  0  0  0  0  0  0
    3.5668   -0.5622    0.0000 C   0  0  0  0  0  0  0  0  0  0  0  0
    3.5668    0.9378    0.0000 C   0  0  0  0  0  0  0  0  0  0  0  0
    2.2768    1.6878    0.0000 C   0  0  0  0  0  0  0  0  0  0  0  0
    0.9768    0.9378    0.0000 C   0  0  0  0  0  0  0  0  0  0  0  0
    2.2793   -2.8122    0.0000 O   0  0  0  0  0  0  0  0  0  0  0  0
   -0.3221   -1.3124    0.0000 O   0  0  0  0  0  0  0  0  0  0  0  0
   -1.6213   -0.5626    0.0000 C   0  0  0  0  0  0  0  0  0  0  0  0
  1  2  2  0
  2  3  1  0
  3  4  2  0
  4  5  1  0
  5  6  2  0
  1  6  1  0
  2  7  1  0
  1  8  1  0
  8  9  1  0
M  END
>  <cdk:Title>  (645) 
Guaiacol

>  <1A2>  (645) 
N

>  <2A6>  (645) 
N

>  <2B6>  (645) 
N

>  <2C8>  (645) 
N

>  <2C9>  (645) 
N

>  <2C19>  (645) 
N

>  <2D6>  (645) 
N

>  <2E1>  (645) 
N

>  <3A4>  (645) 
N

>  <Citation>  (645) 
Nucleic Acids Res. 2018. Jan 4;46(D1):D608-17. PMID:29140435
Nucleic Acids Res. 2018 Jan 4;46(D1):D1074-D1082. PMID:29126136
Nucleic Acids Res., 45:D380-388 (2017).  PMID:27924025
Nucleic Acids Res. 2016 Jan 4;44(D1):D1202-13. PMID:26400175

>  <ROMol>  (645) 
<rdkit.Chem.rdchem.Mol object at 0x7c2905dc4eb0>

>  <Drug_like>  (645) 
True

$$$$
(4R)-4-[(1S_2S_7S_9S_10R_11S_14R_15R)-9-Hydroxy-2_15-dimethyl-5-oxotetracyclo[8.
     RDKit          2D

 28 31  0  0  0  0  0  0  0  0999 V2000
    0.9416   -4.2651    0.0000 C   0  0  0  0  0  0  0  0  0  0  0  0
    0.9416   -5.7651    0.0000 C   0  0  0  0  0  0  0  0  0  0  0  0
   -0.3584   -6.5151    0.0000 C   0  0  0  0  0  0  0  0  0  0  0  0
   -1.6584   -5.7651    0.0000 C   0  0  0  0  0  0  0  0  0  0  0  0
   -2.9584   -6.5151    0.0000 C   0  0  0  0  0  0  0  0  0  0  0  0
   -4.2584   -5.7651    0.0000 C   0  0  0  0  0  0  0  0  0  0  0  0
   -4.2584   -4.2651    0.0000 C   0  0  0  0  0  0  0  0  0  0  0  0
   -2.9584   -3.5151    0.0000 C   0  0  0  0  0  0  0  0  0  0  0  0
   -1.6584   -4.2651    0.0000 C   0  0  0  0  0  0  0  0  0  0  0  0
   -0.3584   -3.5151    0.0000 C   0  0  0  0  0  0  0  0  0  0  0  0
   -0.3584   -2.0151    0.0000 C   0  0  0  0  0  0  0  0  0  0  0  0
    0.9416   -1.2651    0.0000 C   0  0  0  0  0  0  0  0  0  0  0  0
    2.2416   -2.0151    0.0000 C   0  0  0  0  0  0  0  0  0  0  0  0
    2.2416   -3.5151    0.0000 C   0  0  0  0  0  0  0  0  0  0  0  0
    3.6716   -3.9851    0.0000 C   0  0  0  0  0  0  0  0  0  0  0  0
    4.5516   -2.7651    0.0000 C   0  0  0  0  0  0  0  0  0  0  0  0
    3.6716   -1.5551    0.0000 C   0  0  0  0  0  0  0  0  0  0  0  0
    6.2187   -0.0868    0.0000 C   0  0  0  0  0  0  0  0  0  0  0  0
    6.2200    1.8932    0.0000 C   0  0  0  0  0  0  0  0  0  0  0  0
    7.5195    2.6424    0.0000 C   0  0  0  0  0  0  0  0  0  0  0  0
    7.5205    4.1424    0.0000 C   0  0  0  0  0  0  0  0  0  0  0  0
    6.2219    4.8932    0.0000 O   0  0  0  0  0  0  0  0  0  0  0  0
    8.8200    4.8915    0.0000 O   0  0  0  0  0  0  0  0  0  0  0  0
    6.7308   -1.4966    0.0000 C   0  0  0  0  0  0  0  0  0  0  0  0
    2.5019    0.4311    0.0000 C   0  0  0  0  0  0  0  0  0  0  0  0
   -1.3146   -2.3152    0.0000 C   0  0  0  0  0  0  0  0  0  0  0  0
   -5.5573   -6.5153    0.0000 O   0  0  0  0  0  0  0  0  0  0  0  0
    1.4543   -7.1747    0.0000 O   0  0  0  0  0  0  0  0  0  0  0  0
  1  2  1  0
  2  3  1  0
  3  4  1  0
  4  5  1  0
  5  6  1  0
  6  7  1  0
  7  8  1  0
  8  9  1  0
  4  9  1  0
  9 10  1  0
  1 10  1  0
 10 11  1  0
 11 12  1  0
 12 13  1  0
 13 14  1  0
  1 14  1  0
 14 15  1  0
 15 16  1  0
 16 17  1  0
 13 17  1  0
 17 18  1  0
 18 19  1  0
 19 20  1  0
 20 21  1  0
 21 22  2  0
 21 23  1  0
 18 24  1  0
 13 25  1  1
  9 26  1  1
  6 27  2  0
  2 28  1  0
M  END
>  <cdk:Title>  (646) 
(4R)-4-[(1S_2S_7S_9S_10R_11S_14R_15R)-9-Hydroxy-2_15-dimethyl-5-oxotetracyclo[8.7.0.0??_???.0????_?????]heptadecan-14-yl]pentanoic acid

>  <1A2>  (646) 
N

>  <2A6>  (646) 
N

>  <2B6>  (646) 
N

>  <2C8>  (646) 
N

>  <2C9>  (646) 
N

>  <2C19>  (646) 
N

>  <2D6>  (646) 
N

>  <2E1>  (646) 
N

>  <3A4>  (646) 
N

>  <Citation>  (646) 
Nucleic Acids Res. 2018. Jan 4;46(D1):D608-17. PMID:29140435
Nucleic Acids Res. 2018 Jan 4;46(D1):D1074-D1082. PMID:29126136
Nucleic Acids Res., 45:D380-388 (2017).  PMID:27924025
Nucleic Acids Res. 2016 Jan 4;44(D1):D1202-13. PMID:26400175

>  <ROMol>  (646) 
<rdkit.Chem.rdchem.Mol object at 0x7c2905dc4f20>

>  <Drug_like>  (646) 
True

$$$$
AKBA
     RDKit          2D

 37 41  0  0  0  0  0  0  0  0999 V2000
   -5.3202    0.7485    0.0000 C   0  0  0  0  0  0  0  0  0  0  0  0
   -6.6202   -0.0015    0.0000 C   0  0  0  0  0  0  0  0  0  0  0  0
   -6.6202   -1.5015    0.0000 C   0  0  0  0  0  0  0  0  0  0  0  0
   -5.3202   -2.2515    0.0000 C   0  0  0  0  0  0  0  0  0  0  0  0
   -4.0202   -1.5015    0.0000 C   0  0  0  0  0  0  0  0  0  0  0  0
   -2.7202   -2.2515    0.0000 C   0  0  0  0  0  0  0  0  0  0  0  0
   -1.4302   -1.5015    0.0000 C   0  0  0  0  0  0  0  0  0  0  0  0
   -1.4302   -0.0015    0.0000 C   0  0  0  0  0  0  0  0  0  0  0  0
   -2.7202    0.7485    0.0000 C   0  0  0  0  0  0  0  0  0  0  0  0
   -4.0202   -0.0015    0.0000 C   0  0  0  0  0  0  0  0  0  0  0  0
   -3.6764    1.9484    0.0000 C   0  0  0  0  0  0  0  0  0  0  0  0
   -2.7202    2.2485    0.0000 C   0  0  0  0  0  0  0  0  0  0  0  0
   -1.4302    2.9985    0.0000 C   0  0  0  0  0  0  0  0  0  0  0  0
   -0.1302    2.2485    0.0000 C   0  0  0  0  0  0  0  0  0  0  0  0
   -0.1302    0.7485    0.0000 C   0  0  0  0  0  0  0  0  0  0  0  0
    1.1698   -0.0015    0.0000 C   0  0  0  0  0  0  0  0  0  0  0  0
    2.4698    0.7485    0.0000 C   0  0  0  0  0  0  0  0  0  0  0  0
    2.4698    2.2485    0.0000 C   0  0  0  0  0  0  0  0  0  0  0  0
    1.1698    2.9985    0.0000 C   0  0  0  0  0  0  0  0  0  0  0  0
    1.1698    4.4985    0.0000 C   0  0  0  0  0  0  0  0  0  0  0  0
    2.4698    5.2485    0.0000 C   0  0  0  0  0  0  0  0  0  0  0  0
    3.7698    4.4985    0.0000 C   0  0  0  0  0  0  0  0  0  0  0  0
    3.7698    2.9985    0.0000 C   0  0  0  0  0  0  0  0  0  0  0  0
    4.0509    7.1331    0.0000 C   0  0  0  0  0  0  0  0  0  0  0  0
    0.1649    7.2614    0.0000 C   0  0  0  0  0  0  0  0  0  0  0  0
    5.0157    0.7781    0.0000 C   0  0  0  0  0  0  0  0  0  0  0  0
   -0.6407   -2.1468    0.0000 C   0  0  0  0  0  0  0  0  0  0  0  0
   -4.0204    2.9965    0.0000 O   0  0  0  0  0  0  0  0  0  0  0  0
    1.1157   -1.4719    0.0000 C   0  0  0  0  0  0  0  0  0  0  0  0
   -6.2842   -3.4007    0.0000 C   0  0  0  0  0  0  0  0  0  0  0  0
   -5.7711   -4.8102    0.0000 O   0  0  0  0  0  0  0  0  0  0  0  0
   -7.7615   -3.1404    0.0000 O   0  0  0  0  0  0  0  0  0  0  0  0
   -3.7391   -4.1362    0.0000 C   0  0  0  0  0  0  0  0  0  0  0  0
   -8.0974   -1.2412    0.0000 O   0  0  0  0  0  0  0  0  0  0  0  0
   -9.0615   -2.3904    0.0000 C   0  0  0  0  0  0  0  0  0  0  0  0
  -10.5387   -2.1301    0.0000 C   0  0  0  0  0  0  0  0  0  0  0  0
   -8.5483   -3.7999    0.0000 O   0  0  0  0  0  0  0  0  0  0  0  0
  1  2  1  0
  2  3  1  0
  3  4  1  0
  4  5  1  0
  5  6  1  0
  6  7  1  0
  7  8  1  0
  8  9  1  0
  9 10  1  0
  1 10  1  0
  5 10  1  0
 10 11  1  1
  9 12  1  0
 12 13  1  0
 13 14  2  0
 14 15  1  0
  8 15  1  0
 15 16  1  0
 16 17  1  0
 17 18  1  0
 18 19  1  0
 14 19  1  0
 19 20  1  0
 20 21  1  0
 21 22  1  0
 22 23  1  0
 18 23  1  0
 21 24  1  0
 20 25  1  0
 18 26  1  1
 15 27  1  6
 12 28  2  0
  8 29  1  1
  4 30  1  0
 30 31  1  0
 30 32  2  0
  4 33  1  6
  3 34  1  0
 34 35  1  0
 35 36  1  0
 35 37  2  0
M  END
>  <cdk:Title>  (647) 
AKBA

>  <1A2>  (647) 
N

>  <2A6>  (647) 
N

>  <2B6>  (647) 
N

>  <2C8>  (647) 
N

>  <2C9>  (647) 
N

>  <2C19>  (647) 
N

>  <2D6>  (647) 
N

>  <2E1>  (647) 
N

>  <3A4>  (647) 
N

>  <Citation>  (647) 
Nucleic Acids Res. 2018. Jan 4;46(D1):D608-17. PMID:29140435
Nucleic Acids Res. 2018 Jan 4;46(D1):D1074-D1082. PMID:29126136
Nucleic Acids Res., 45:D380-388 (2017).  PMID:27924025
Nucleic Acids Res. 2016 Jan 4;44(D1):D1202-13. PMID:26400175

>  <ROMol>  (647) 
<rdkit.Chem.rdchem.Mol object at 0x7c2905dc4f90>

>  <Drug_like>  (647) 
True

$$$$
Mukonal
     RDKit          2D

 16 18  0  0  0  0  0  0  0  0999 V2000
   -3.2200   -1.2700    0.0000 C   0  0  0  0  0  0  0  0  0  0  0  0
   -3.6800    0.1600    0.0000 C   0  0  0  0  0  0  0  0  0  0  0  0
   -2.6800    1.2700    0.0000 C   0  0  0  0  0  0  0  0  0  0  0  0
   -1.2100    0.9600    0.0000 C   0  0  0  0  0  0  0  0  0  0  0  0
   -0.7500   -0.4700    0.0000 C   0  0  0  0  0  0  0  0  0  0  0  0
   -1.7500   -1.5800    0.0000 C   0  0  0  0  0  0  0  0  0  0  0  0
    0.7500   -0.4700    0.0000 C   0  0  0  0  0  0  0  0  0  0  0  0
    1.7500   -1.5800    0.0000 C   0  0  0  0  0  0  0  0  0  0  0  0
    3.2200   -1.2700    0.0000 C   0  0  0  0  0  0  0  0  0  0  0  0
    4.2244   -2.3840    0.0000 C   0  0  0  0  0  0  0  0  0  0  0  0
    5.6915   -2.0712    0.0000 O   0  0  0  0  0  0  0  0  0  0  0  0
    3.6800    0.1600    0.0000 C   0  0  0  0  0  0  0  0  0  0  0  0
    2.6800    1.2700    0.0000 C   0  0  0  0  0  0  0  0  0  0  0  0
    1.2100    0.9600    0.0000 C   0  0  0  0  0  0  0  0  0  0  0  0
   -0.0000    1.8400    0.0000 N   0  0  0  0  0  0  0  0  0  0  0  0
    5.1467    0.4742    0.0000 O   0  0  0  0  0  0  0  0  0  0  0  0
  1  2  2  0
  2  3  1  0
  3  4  2  0
  4  5  1  0
  5  6  2  0
  1  6  1  0
  5  7  1  0
  7  8  2  0
  8  9  1  0
  9 10  1  0
 10 11  2  0
  9 12  2  0
 12 13  1  0
 13 14  2  0
  7 14  1  0
 14 15  1  0
  4 15  1  0
 12 16  1  0
M  END
>  <cdk:Title>  (648) 
Mukonal

>  <1A2>  (648) 
N

>  <2A6>  (648) 
N

>  <2B6>  (648) 
N

>  <2C8>  (648) 
N

>  <2C9>  (648) 
N

>  <2C19>  (648) 
N

>  <2D6>  (648) 
N

>  <2E1>  (648) 
N

>  <3A4>  (648) 
N

>  <Citation>  (648) 
Nucleic Acids Res. 2018. Jan 4;46(D1):D608-17. PMID:29140435
Nucleic Acids Res. 2018 Jan 4;46(D1):D1074-D1082. PMID:29126136
Nucleic Acids Res., 45:D380-388 (2017).  PMID:27924025
Nucleic Acids Res. 2016 Jan 4;44(D1):D1202-13. PMID:26400175

>  <ROMol>  (648) 
<rdkit.Chem.rdchem.Mol object at 0x7c2905dc5070>

>  <Drug_like>  (648) 
True

$$$$
20-Dihydroxyleukotriene b4
     RDKit          2D

 26 25  0  0  0  0  0  0  0  0999 V2000
   -5.2491   -8.1473    0.0000 O   0  0  0  0  0  0  0  0  0  0  0  0
   -6.2133   -6.9982    0.0000 C   0  0  0  0  0  0  0  0  0  0  0  0
   -7.5124   -6.2482    0.0000 O   0  0  0  0  0  0  0  0  0  0  0  0
   -4.9143   -6.2482    0.0000 C   0  0  0  0  0  0  0  0  0  0  0  0
   -4.9143   -4.7482    0.0000 C   0  0  0  0  0  0  0  0  0  0  0  0
   -3.1996   -3.7582    0.0000 C   0  0  0  0  0  0  0  0  0  0  0  0
   -3.1996   -1.2982    0.0000 C   0  0  0  0  0  0  0  0  0  0  0  0
   -0.6534    0.1718    0.0000 C   0  0  0  0  0  0  0  0  0  0  0  0
    0.6456   -0.5782    0.0000 C   0  0  0  0  0  0  0  0  0  0  0  0
    0.6456   -2.0782    0.0000 C   0  0  0  0  0  0  0  0  0  0  0  0
    1.9446   -2.8282    0.0000 C   0  0  0  0  0  0  0  0  0  0  0  0
    3.4218   -3.0887    0.0000 O   0  0  0  0  0  0  0  0  0  0  0  0
    1.9446   -4.3282    0.0000 C   0  0  0  0  0  0  0  0  0  0  0  0
    3.2437   -5.0782    0.0000 C   0  0  0  0  0  0  0  0  0  0  0  0
    3.2437   -6.5782    0.0000 C   0  0  0  0  0  0  0  0  0  0  0  0
    4.5427   -7.3282    0.0000 C   0  0  0  0  0  0  0  0  0  0  0  0
    4.5427   -8.8282    0.0000 C   0  0  0  0  0  0  0  0  0  0  0  0
    5.8417   -9.5782    0.0000 C   0  0  0  0  0  0  0  0  0  0  0  0
    7.1408   -8.8282    0.0000 C   0  0  0  0  0  0  0  0  0  0  0  0
    6.1766   -7.6791    0.0000 O   0  0  0  0  0  0  0  0  0  0  0  0
    8.4398   -9.5782    0.0000 C   0  0  0  0  0  0  0  0  0  0  0  0
   10.5702   -8.3482    0.0000 C   0  0  0  0  0  0  0  0  0  0  0  0
   11.8693   -9.0982    0.0000 C   0  0  0  0  0  0  0  0  0  0  0  0
   13.1683   -8.3482    0.0000 C   0  0  0  0  0  0  0  0  0  0  0  0
   14.4674   -9.0982    0.0000 O   0  0  0  0  0  0  0  0  0  0  0  0
   13.1683   -6.8482    0.0000 O   0  0  0  0  0  0  0  0  0  0  0  0
  1  2  1  0
  2  3  1  0
  2  4  1  0
  4  5  1  0
  5  6  1  0
  6  7  1  0
  7  8  1  0
  8  9  2  0
  9 10  1  0
 10 11  1  0
 11 12  1  0
 11 13  1  0
 13 14  2  0
 14 15  1  0
 15 16  2  0
 16 17  1  0
 17 18  2  0
 18 19  1  0
 19 20  1  0
 19 21  1  0
 21 22  1  0
 22 23  1  0
 23 24  1  0
 24 25  1  0
 24 26  2  0
M  END
>  <cdk:Title>  (649) 
20-Dihydroxyleukotriene b4

>  <1A2>  (649) 
N

>  <2A6>  (649) 
N

>  <2B6>  (649) 
N

>  <2C8>  (649) 
N

>  <2C9>  (649) 
N

>  <2C19>  (649) 
N

>  <2D6>  (649) 
N

>  <2E1>  (649) 
N

>  <3A4>  (649) 
N

>  <Citation>  (649) 
Nucleic Acids Res. 2018. Jan 4;46(D1):D608-17. PMID:29140435
Nucleic Acids Res. 2018 Jan 4;46(D1):D1074-D1082. PMID:29126136
Nucleic Acids Res., 45:D380-388 (2017).  PMID:27924025
Nucleic Acids Res. 2016 Jan 4;44(D1):D1202-13. PMID:26400175

>  <ROMol>  (649) 
<rdkit.Chem.rdchem.Mol object at 0x7c2905dc50e0>

>  <Drug_like>  (649) 
True

$$$$
Arabinonic acid
     RDKit          2D

 11 10  0  0  0  0  0  0  0  0999 V2000
    4.8613    1.6291    0.0000 O   0  0  0  0  0  0  0  0  0  0  0  0
    3.8971    0.4800    0.0000 C   0  0  0  0  0  0  0  0  0  0  0  0
    5.1962   -0.2700    0.0000 C   0  0  0  0  0  0  0  0  0  0  0  0
    7.3266    0.9600    0.0000 C   0  0  0  0  0  0  0  0  0  0  0  0
    8.6256    0.2100    0.0000 C   0  0  0  0  0  0  0  0  0  0  0  0
    9.9247    0.9600    0.0000 O   0  0  0  0  0  0  0  0  0  0  0  0
    8.2908    2.1091    0.0000 O   0  0  0  0  0  0  0  0  0  0  0  0
    4.2320   -1.4191    0.0000 O   0  0  0  0  0  0  0  0  0  0  0  0
    2.5981   -0.2700    0.0000 C   0  0  0  0  0  0  0  0  0  0  0  0
    1.2990    0.4800    0.0000 O   0  0  0  0  0  0  0  0  0  0  0  0
    2.5981   -1.7700    0.0000 O   0  0  0  0  0  0  0  0  0  0  0  0
  1  2  1  0
  2  3  1  0
  3  4  1  0
  4  5  1  0
  5  6  1  0
  4  7  1  0
  3  8  1  0
  2  9  1  0
  9 10  1  0
  9 11  2  0
M  END
>  <cdk:Title>  (650) 
Arabinonic acid

>  <1A2>  (650) 
N

>  <2A6>  (650) 
N

>  <2B6>  (650) 
N

>  <2C8>  (650) 
N

>  <2C9>  (650) 
N

>  <2C19>  (650) 
N

>  <2D6>  (650) 
N

>  <2E1>  (650) 
N

>  <3A4>  (650) 
N

>  <Citation>  (650) 
Nucleic Acids Res. 2018. Jan 4;46(D1):D608-17. PMID:29140435
Nucleic Acids Res. 2018 Jan 4;46(D1):D1074-D1082. PMID:29126136
Nucleic Acids Res., 45:D380-388 (2017).  PMID:27924025
Nucleic Acids Res. 2016 Jan 4;44(D1):D1202-13. PMID:26400175

>  <ROMol>  (650) 
<rdkit.Chem.rdchem.Mol object at 0x7c2905dc52a0>

>  <Drug_like>  (650) 
True

$$$$
3-Methylbutyl pentanoate
     RDKit          2D

 12 11  0  0  0  0  0  0  0  0999 V2000
    9.6796   -7.4703    0.0000 C   0  0  0  0  0  0  0  0  0  0  0  0
    8.9296   -6.1713    0.0000 C   0  0  0  0  0  0  0  0  0  0  0  0
    7.4296   -6.1713    0.0000 C   0  0  0  0  0  0  0  0  0  0  0  0
    6.4396   -4.4566    0.0000 C   0  0  0  0  0  0  0  0  0  0  0  0
    4.9396   -4.4566    0.0000 C   0  0  0  0  0  0  0  0  0  0  0  0
    4.1896   -5.7556    0.0000 O   0  0  0  0  0  0  0  0  0  0  0  0
    4.1896   -3.1575    0.0000 O   0  0  0  0  0  0  0  0  0  0  0  0
    2.6896   -3.1575    0.0000 C   0  0  0  0  0  0  0  0  0  0  0  0
    1.9396   -1.8585    0.0000 C   0  0  0  0  0  0  0  0  0  0  0  0
   -1.0004   -1.8585    0.0000 C   0  0  0  0  0  0  0  0  0  0  0  0
   -1.7504   -3.1575    0.0000 C   0  0  0  0  0  0  0  0  0  0  0  0
   -0.5732    0.5641    0.0000 C   0  0  0  0  0  0  0  0  0  0  0  0
  1  2  1  0
  2  3  1  0
  3  4  1  0
  4  5  1  0
  5  6  2  0
  5  7  1  0
  7  8  1  0
  8  9  1  0
  9 10  1  0
 10 11  1  0
 10 12  1  0
M  END
>  <cdk:Title>  (651) 
3-Methylbutyl pentanoate

>  <1A2>  (651) 
N

>  <2A6>  (651) 
N

>  <2B6>  (651) 
N

>  <2C8>  (651) 
N

>  <2C9>  (651) 
N

>  <2C19>  (651) 
N

>  <2D6>  (651) 
N

>  <2E1>  (651) 
N

>  <3A4>  (651) 
N

>  <Citation>  (651) 
Nucleic Acids Res. 2018. Jan 4;46(D1):D608-17. PMID:29140435
Nucleic Acids Res. 2018 Jan 4;46(D1):D1074-D1082. PMID:29126136
Nucleic Acids Res., 45:D380-388 (2017).  PMID:27924025
Nucleic Acids Res. 2016 Jan 4;44(D1):D1202-13. PMID:26400175

>  <ROMol>  (651) 
<rdkit.Chem.rdchem.Mol object at 0x7c2905dc5310>

>  <Drug_like>  (651) 
True

$$$$
3-Methylbutyl octanoate
     RDKit          2D

 15 14  0  0  0  0  0  0  0  0999 V2000
   13.4190   -9.4379    0.0000 C   0  0  0  0  0  0  0  0  0  0  0  0
   11.9190   -9.4379    0.0000 C   0  0  0  0  0  0  0  0  0  0  0  0
   11.1690   -8.1388    0.0000 C   0  0  0  0  0  0  0  0  0  0  0  0
    8.7090   -8.1388    0.0000 C   0  0  0  0  0  0  0  0  0  0  0  0
    7.7190   -6.4241    0.0000 C   0  0  0  0  0  0  0  0  0  0  0  0
    5.7390   -6.4241    0.0000 C   0  0  0  0  0  0  0  0  0  0  0  0
    4.9890   -5.1251    0.0000 C   0  0  0  0  0  0  0  0  0  0  0  0
    3.4890   -5.1251    0.0000 C   0  0  0  0  0  0  0  0  0  0  0  0
    2.7390   -6.4241    0.0000 O   0  0  0  0  0  0  0  0  0  0  0  0
    2.7390   -3.8260    0.0000 O   0  0  0  0  0  0  0  0  0  0  0  0
    1.2390   -3.8260    0.0000 C   0  0  0  0  0  0  0  0  0  0  0  0
    0.4890   -2.5270    0.0000 C   0  0  0  0  0  0  0  0  0  0  0  0
   -2.4510   -2.5270    0.0000 C   0  0  0  0  0  0  0  0  0  0  0  0
   -3.2010   -3.8260    0.0000 C   0  0  0  0  0  0  0  0  0  0  0  0
   -2.0238   -0.1043    0.0000 C   0  0  0  0  0  0  0  0  0  0  0  0
  1  2  1  0
  2  3  1  0
  3  4  1  0
  4  5  1  0
  5  6  1  0
  6  7  1  0
  7  8  1  0
  8  9  2  0
  8 10  1  0
 10 11  1  0
 11 12  1  0
 12 13  1  0
 13 14  1  0
 13 15  1  0
M  END
>  <cdk:Title>  (652) 
3-Methylbutyl octanoate

>  <1A2>  (652) 
N

>  <2A6>  (652) 
N

>  <2B6>  (652) 
N

>  <2C8>  (652) 
N

>  <2C9>  (652) 
N

>  <2C19>  (652) 
N

>  <2D6>  (652) 
N

>  <2E1>  (652) 
N

>  <3A4>  (652) 
N

>  <Citation>  (652) 
Nucleic Acids Res. 2018. Jan 4;46(D1):D608-17. PMID:29140435
Nucleic Acids Res. 2018 Jan 4;46(D1):D1074-D1082. PMID:29126136
Nucleic Acids Res., 45:D380-388 (2017).  PMID:27924025
Nucleic Acids Res. 2016 Jan 4;44(D1):D1202-13. PMID:26400175

>  <ROMol>  (652) 
<rdkit.Chem.rdchem.Mol object at 0x7c2905dc5380>

>  <Drug_like>  (652) 
True

$$$$
2-(6-Hydroxy-2-methoxy-3_4-methylenedioxyphenyl)benzofuran
     RDKit          2D

 21 24  0  0  0  0  0  0  0  0999 V2000
    3.5676    2.9417    0.0000 C   0  0  0  0  0  0  0  0  0  0  0  0
    3.5674    1.4417    0.0000 O   0  0  0  0  0  0  0  0  0  0  0  0
    2.2682    0.6920    0.0000 C   0  0  0  0  0  0  0  0  0  0  0  0
    2.2685   -0.8089    0.0000 C   0  0  0  0  0  0  0  0  0  0  0  0
    0.9693   -1.5587    0.0000 C   0  0  0  0  0  0  0  0  0  0  0  0
   -0.3301   -0.8076    0.0000 C   0  0  0  0  0  0  0  0  0  0  0  0
   -0.3303    0.6932    0.0000 C   0  0  0  0  0  0  0  0  0  0  0  0
    0.9688    1.4430    0.0000 C   0  0  0  0  0  0  0  0  0  0  0  0
    0.6524    2.9115    0.0000 O   0  0  0  0  0  0  0  0  0  0  0  0
   -0.8354    3.0688    0.0000 C   0  0  0  0  0  0  0  0  0  0  0  0
   -1.4435    1.7018    0.0000 O   0  0  0  0  0  0  0  0  0  0  0  0
    0.9688   -3.0587    0.0000 O   0  0  0  0  0  0  0  0  0  0  0  0
    3.5675   -1.5589    0.0000 C   0  0  0  0  0  0  0  0  0  0  0  0
    3.7246   -3.0468    0.0000 C   0  0  0  0  0  0  0  0  0  0  0  0
    5.1930   -3.3634    0.0000 C   0  0  0  0  0  0  0  0  0  0  0  0
    5.9439   -4.6629    0.0000 C   0  0  0  0  0  0  0  0  0  0  0  0
    7.4447   -4.6634    0.0000 C   0  0  0  0  0  0  0  0  0  0  0  0
    8.1947   -3.3644    0.0000 C   0  0  0  0  0  0  0  0  0  0  0  0
    7.4439   -2.0648    0.0000 C   0  0  0  0  0  0  0  0  0  0  0  0
    5.9430   -2.0644    0.0000 C   0  0  0  0  0  0  0  0  0  0  0  0
    4.9346   -0.9510    0.0000 O   0  0  0  0  0  0  0  0  0  0  0  0
  1  2  1  0
  2  3  1  0
  3  4  2  0
  4  5  1  0
  5  6  2  0
  6  7  1  0
  7  8  2  0
  3  8  1  0
  8  9  1  0
  9 10  1  0
 10 11  1  0
  7 11  1  0
  5 12  1  0
  4 13  1  0
 13 14  2  0
 14 15  1  0
 15 16  2  0
 16 17  1  0
 17 18  2  0
 18 19  1  0
 19 20  2  0
 15 20  1  0
 20 21  1  0
 13 21  1  0
M  END
>  <cdk:Title>  (653) 
2-(6-Hydroxy-2-methoxy-3_4-methylenedioxyphenyl)benzofuran

>  <1A2>  (653) 
N

>  <2A6>  (653) 
N

>  <2B6>  (653) 
N

>  <2C8>  (653) 
N

>  <2C9>  (653) 
N

>  <2C19>  (653) 
N

>  <2D6>  (653) 
N

>  <2E1>  (653) 
N

>  <3A4>  (653) 
N

>  <Citation>  (653) 
Nucleic Acids Res. 2018. Jan 4;46(D1):D608-17. PMID:29140435
Nucleic Acids Res. 2018 Jan 4;46(D1):D1074-D1082. PMID:29126136
Nucleic Acids Res., 45:D380-388 (2017).  PMID:27924025
Nucleic Acids Res. 2016 Jan 4;44(D1):D1202-13. PMID:26400175

>  <ROMol>  (653) 
<rdkit.Chem.rdchem.Mol object at 0x7c2905dc53f0>

>  <Drug_like>  (653) 
True

$$$$
ent-17-Hydroxy-16beta-kauran-19-al
     RDKit          2D

 22 25  0  0  0  0  0  0  0  0999 V2000
   -5.5521   -3.1538    0.0000 C   0  0  0  0  0  0  0  0  0  0  0  0
   -3.6626   -0.9014    0.0000 C   0  0  0  0  0  0  0  0  0  0  0  0
   -4.9626   -0.1514    0.0000 C   0  0  0  0  0  0  0  0  0  0  0  0
   -4.9626    1.3486    0.0000 C   0  0  0  0  0  0  0  0  0  0  0  0
   -3.6626    2.0986    0.0000 C   0  0  0  0  0  0  0  0  0  0  0  0
   -2.3626    1.3486    0.0000 C   0  0  0  0  0  0  0  0  0  0  0  0
   -2.3626    2.8486    0.0000 C   0  0  0  0  0  0  0  0  0  0  0  0
   -2.3626   -0.1514    0.0000 C   0  0  0  0  0  0  0  0  0  0  0  0
   -1.0626   -0.9014    0.0000 C   0  0  0  0  0  0  0  0  0  0  0  0
    0.2374   -0.1514    0.0000 C   0  0  0  0  0  0  0  0  0  0  0  0
    0.2374    1.3486    0.0000 C   0  0  0  0  0  0  0  0  0  0  0  0
    0.0474    3.1786    0.0000 C   0  0  0  0  0  0  0  0  0  0  0  0
    1.2274    4.5686    0.0000 C   0  0  0  0  0  0  0  0  0  0  0  0
   -0.2726    4.6786    0.0000 C   0  0  0  0  0  0  0  0  0  0  0  0
   -1.2926    3.5786    0.0000 C   0  0  0  0  0  0  0  0  0  0  0  0
   -1.0626    2.0986    0.0000 C   0  0  0  0  0  0  0  0  0  0  0  0
    2.0774    3.3286    0.0000 C   0  0  0  0  0  0  0  0  0  0  0  0
    1.6274    1.8986    0.0000 C   0  0  0  0  0  0  0  0  0  0  0  0
    4.2042    2.0923    0.0000 C   0  0  0  0  0  0  0  0  0  0  0  0
    5.5055    2.8385    0.0000 O   0  0  0  0  0  0  0  0  0  0  0  0
   -1.7730   -3.1538    0.0000 C   0  0  0  0  0  0  0  0  0  0  0  0
   -2.2862   -4.5633    0.0000 O   0  0  0  0  0  0  0  0  0  0  0  0
  2  1  1  1
  2  3  1  0
  3  4  1  0
  4  5  1  0
  5  6  1  0
  6  7  1  1
  6  8  1  0
  2  8  1  0
  8  9  1  0
  9 10  1  0
 11 10  1  6
 11 12  1  0
 12 13  1  0
 13 14  1  0
 14 15  1  0
 15 16  1  0
  6 16  1  0
 11 16  1  0
 13 17  1  0
 17 18  1  0
 11 18  1  0
 17 19  1  0
 19 20  1  0
  2 21  1  0
 21 22  2  0
M  END
>  <cdk:Title>  (654) 
ent-17-Hydroxy-16beta-kauran-19-al

>  <1A2>  (654) 
N

>  <2A6>  (654) 
N

>  <2B6>  (654) 
N

>  <2C8>  (654) 
N

>  <2C9>  (654) 
N

>  <2C19>  (654) 
N

>  <2D6>  (654) 
N

>  <2E1>  (654) 
N

>  <3A4>  (654) 
N

>  <Citation>  (654) 
Nucleic Acids Res. 2018. Jan 4;46(D1):D608-17. PMID:29140435
Nucleic Acids Res. 2018 Jan 4;46(D1):D1074-D1082. PMID:29126136
Nucleic Acids Res., 45:D380-388 (2017).  PMID:27924025
Nucleic Acids Res. 2016 Jan 4;44(D1):D1202-13. PMID:26400175

>  <ROMol>  (654) 
<rdkit.Chem.rdchem.Mol object at 0x7c2905dc5540>

>  <Drug_like>  (654) 
True

$$$$
beta-Aspartylalanine
     RDKit          2D

 14 13  0  0  0  0  0  0  0  0999 V2000
   11.9999   -0.3823    0.0000 O   0  0  0  0  0  0  0  0  0  0  0  0
   10.7008    0.3677    0.0000 C   0  0  0  0  0  0  0  0  0  0  0  0
   10.7008    1.8677    0.0000 O   0  0  0  0  0  0  0  0  0  0  0  0
    9.4018   -0.3823    0.0000 C   0  0  0  0  0  0  0  0  0  0  0  0
    8.1291   -1.8991    0.0000 N   0  0  0  0  0  0  0  0  0  0  0  0
    8.1028    0.3677    0.0000 C   0  0  0  0  0  0  0  0  0  0  0  0
    8.1028    1.8677    0.0000 C   0  0  0  0  0  0  0  0  0  0  0  0
    6.8037    2.6177    0.0000 N   0  0  0  0  0  0  0  0  0  0  0  0
    6.8037    4.1177    0.0000 C   0  0  0  0  0  0  0  0  0  0  0  0
    5.5047    4.8677    0.0000 C   0  0  0  0  0  0  0  0  0  0  0  0
    4.2057    4.1177    0.0000 O   0  0  0  0  0  0  0  0  0  0  0  0
    5.5047    6.3677    0.0000 O   0  0  0  0  0  0  0  0  0  0  0  0
    7.3168    5.5272    0.0000 C   0  0  0  0  0  0  0  0  0  0  0  0
    9.4018    2.6177    0.0000 O   0  0  0  0  0  0  0  0  0  0  0  0
  1  2  1  0
  2  3  2  0
  2  4  1  0
  4  5  1  0
  4  6  1  0
  6  7  1  0
  7  8  1  0
  8  9  1  0
  9 10  1  0
 10 11  2  0
 10 12  1  0
  9 13  1  0
  7 14  2  0
M  END
>  <cdk:Title>  (655) 
beta-Aspartylalanine

>  <1A2>  (655) 
N

>  <2A6>  (655) 
N

>  <2B6>  (655) 
N

>  <2C8>  (655) 
N

>  <2C9>  (655) 
N

>  <2C19>  (655) 
N

>  <2D6>  (655) 
N

>  <2E1>  (655) 
N

>  <3A4>  (655) 
N

>  <Citation>  (655) 
Nucleic Acids Res. 2018. Jan 4;46(D1):D608-17. PMID:29140435
Nucleic Acids Res. 2018 Jan 4;46(D1):D1074-D1082. PMID:29126136
Nucleic Acids Res., 45:D380-388 (2017).  PMID:27924025
Nucleic Acids Res. 2016 Jan 4;44(D1):D1202-13. PMID:26400175

>  <ROMol>  (655) 
<rdkit.Chem.rdchem.Mol object at 0x7c2905dc5620>

>  <Drug_like>  (655) 
True

$$$$
Mangiferic acid
     RDKit          2D

 20 19  0  0  0  0  0  0  0  0999 V2000
   25.5131   -0.7500    0.0000 C   0  0  0  0  0  0  0  0  0  0  0  0
   24.2141   -0.0000    0.0000 C   0  0  0  0  0  0  0  0  0  0  0  0
   22.9150   -0.7500    0.0000 C   0  0  0  0  0  0  0  0  0  0  0  0
   21.6160   -0.0000    0.0000 C   0  0  0  0  0  0  0  0  0  0  0  0
   20.3170   -0.7500    0.0000 C   0  0  0  0  0  0  0  0  0  0  0  0
   19.0179   -0.0000    0.0000 C   0  0  0  0  0  0  0  0  0  0  0  0
   16.8875   -1.2300    0.0000 C   0  0  0  0  0  0  0  0  0  0  0  0
   15.5885   -0.4800    0.0000 C   0  0  0  0  0  0  0  0  0  0  0  0
   14.2894   -1.2300    0.0000 C   0  0  0  0  0  0  0  0  0  0  0  0
   12.9904   -0.4800    0.0000 C   0  0  0  0  0  0  0  0  0  0  0  0
   11.6913   -1.2300    0.0000 C   0  0  0  0  0  0  0  0  0  0  0  0
   10.3923   -0.4800    0.0000 C   0  0  0  0  0  0  0  0  0  0  0  0
    8.6776   -1.4700    0.0000 C   0  0  0  0  0  0  0  0  0  0  0  0
    6.5472   -0.2400    0.0000 C   0  0  0  0  0  0  0  0  0  0  0  0
    4.8324   -1.2300    0.0000 C   0  0  0  0  0  0  0  0  0  0  0  0
    3.1177   -0.2400    0.0000 C   0  0  0  0  0  0  0  0  0  0  0  0
    1.8187   -0.9900    0.0000 C   0  0  0  0  0  0  0  0  0  0  0  0
    0.5196   -0.2400    0.0000 C   0  0  0  0  0  0  0  0  0  0  0  0
   -0.7794   -0.9900    0.0000 O   0  0  0  0  0  0  0  0  0  0  0  0
    0.5196    1.2600    0.0000 O   0  0  0  0  0  0  0  0  0  0  0  0
  1  2  1  0
  2  3  1  0
  3  4  2  0
  4  5  1  0
  5  6  1  0
  6  7  1  0
  7  8  1  0
  8  9  1  0
  9 10  2  0
 10 11  1  0
 11 12  1  0
 12 13  1  0
 13 14  1  0
 14 15  1  0
 15 16  1  0
 16 17  1  0
 17 18  1  0
 18 19  1  0
 18 20  2  0
M  END
>  <cdk:Title>  (656) 
Mangiferic acid

>  <1A2>  (656) 
N

>  <2A6>  (656) 
N

>  <2B6>  (656) 
N

>  <2C8>  (656) 
N

>  <2C9>  (656) 
N

>  <2C19>  (656) 
N

>  <2D6>  (656) 
N

>  <2E1>  (656) 
N

>  <3A4>  (656) 
N

>  <Citation>  (656) 
Nucleic Acids Res. 2018. Jan 4;46(D1):D608-17. PMID:29140435
Nucleic Acids Res. 2018 Jan 4;46(D1):D1074-D1082. PMID:29126136
Nucleic Acids Res., 45:D380-388 (2017).  PMID:27924025
Nucleic Acids Res. 2016 Jan 4;44(D1):D1202-13. PMID:26400175

>  <ROMol>  (656) 
<rdkit.Chem.rdchem.Mol object at 0x7c2905dc5690>

>  <Drug_like>  (656) 
True

$$$$
Isoleucylproline
     RDKit          2D

 16 16  0  0  0  0  0  0  0  0999 V2000
    1.6384   -2.6165    0.0000 C   0  0  0  0  0  0  0  0  0  0  0  0
    0.8858   -3.9141    0.0000 C   0  0  0  0  0  0  0  0  0  0  0  0
    0.5382   -5.8633    0.0000 N   0  0  0  0  0  0  0  0  0  0  0  0
   -2.0542   -3.9083    0.0000 C   0  0  0  0  0  0  0  0  0  0  0  0
   -2.8016   -2.6078    0.0000 C   0  0  0  0  0  0  0  0  0  0  0  0
   -4.3016   -2.6049    0.0000 C   0  0  0  0  0  0  0  0  0  0  0  0
   -2.0571   -5.4083    0.0000 C   0  0  0  0  0  0  0  0  0  0  0  0
    0.8909   -1.3160    0.0000 O   0  0  0  0  0  0  0  0  0  0  0  0
    4.0984   -2.6213    0.0000 N   0  0  0  0  0  0  0  0  0  0  0  0
    4.9736   -3.8347    0.0000 C   0  0  0  0  0  0  0  0  0  0  0  0
    6.4054   -3.3803    0.0000 C   0  0  0  0  0  0  0  0  0  0  0  0
    6.4113   -1.8804    0.0000 C   0  0  0  0  0  0  0  0  0  0  0  0
    4.9831   -1.4048    0.0000 C   0  0  0  0  0  0  0  0  0  0  0  0
    3.6862   -0.6512    0.0000 C   0  0  0  0  0  0  0  0  0  0  0  0
    2.3851   -1.3976    0.0000 O   0  0  0  0  0  0  0  0  0  0  0  0
    3.6903    0.8488    0.0000 O   0  0  0  0  0  0  0  0  0  0  0  0
  1  2  1  0
  2  3  1  0
  2  4  1  0
  4  5  1  0
  5  6  1  0
  4  7  1  0
  1  8  2  0
  1  9  1  0
  9 10  1  0
 10 11  1  0
 11 12  1  0
 12 13  1  0
  9 13  1  0
 13 14  1  0
 14 15  2  0
 14 16  1  0
M  END
>  <cdk:Title>  (657) 
Isoleucylproline

>  <1A2>  (657) 
N

>  <2A6>  (657) 
N

>  <2B6>  (657) 
N

>  <2C8>  (657) 
N

>  <2C9>  (657) 
N

>  <2C19>  (657) 
N

>  <2D6>  (657) 
N

>  <2E1>  (657) 
N

>  <3A4>  (657) 
N

>  <Citation>  (657) 
Nucleic Acids Res. 2018. Jan 4;46(D1):D608-17. PMID:29140435
Nucleic Acids Res. 2018 Jan 4;46(D1):D1074-D1082. PMID:29126136
Nucleic Acids Res., 45:D380-388 (2017).  PMID:27924025
Nucleic Acids Res. 2016 Jan 4;44(D1):D1202-13. PMID:26400175

>  <ROMol>  (657) 
<rdkit.Chem.rdchem.Mol object at 0x7c2905dc5700>

>  <Drug_like>  (657) 
True

$$$$
(3beta_22E_24R)-5_8-Epidioxy-23-methylergosta-6_22-dien-3-ol
     RDKit          2D

 32 36  0  0  0  0  0  0  0  0999 V2000
    8.0050    6.1336    0.0000 C   0  0  0  0  0  0  0  0  0  0  0  0
    9.3041    5.3836    0.0000 C   0  0  0  0  0  0  0  0  0  0  0  0
    9.3041    3.8836    0.0000 C   0  0  0  0  0  0  0  0  0  0  0  0
    8.0050    3.1336    0.0000 C   0  0  0  0  0  0  0  0  0  0  0  0
    6.7060    3.8836    0.0000 C   0  0  0  0  0  0  0  0  0  0  0  0
    6.7060    5.3836    0.0000 C   0  0  0  0  0  0  0  0  0  0  0  0
    5.4070    3.1336    0.0000 C   0  0  0  0  0  0  0  0  0  0  0  0
    5.4070    1.6336    0.0000 C   0  0  0  0  0  0  0  0  0  0  0  0
    6.7060    0.8836    0.0000 C   0  0  0  0  0  0  0  0  0  0  0  0
    8.0050    1.6336    0.0000 C   0  0  0  0  0  0  0  0  0  0  0  0
    4.1079    0.8836    0.0000 C   0  0  0  0  0  0  0  0  0  0  0  0
    2.8089    1.6336    0.0000 C   0  0  0  0  0  0  0  0  0  0  0  0
    2.8089    3.1336    0.0000 C   0  0  0  0  0  0  0  0  0  0  0  0
    4.1079    3.8836    0.0000 C   0  0  0  0  0  0  0  0  0  0  0  0
    1.6942    0.6299    0.0000 C   0  0  0  0  0  0  0  0  0  0  0  0
    2.3043   -0.7404    0.0000 C   0  0  0  0  0  0  0  0  0  0  0  0
    3.7961   -0.5837    0.0000 C   0  0  0  0  0  0  0  0  0  0  0  0
    0.8125    1.8434    0.0000 C   0  0  0  0  0  0  0  0  0  0  0  0
    2.1607    2.5010    0.0000 C   0  0  0  0  0  0  0  0  0  0  0  0
   -0.6793    1.6866    0.0000 C   0  0  0  0  0  0  0  0  0  0  0  0
   -1.2894    0.3163    0.0000 C   0  0  0  0  0  0  0  0  0  0  0  0
   -2.7812    0.1595    0.0000 C   0  0  0  0  0  0  0  0  0  0  0  0
   -3.3913   -1.2108    0.0000 C   0  0  0  0  0  0  0  0  0  0  0  0
   -4.8831   -1.3676    0.0000 C   0  0  0  0  0  0  0  0  0  0  0  0
   -3.4959   -2.7072    0.0000 C   0  0  0  0  0  0  0  0  0  0  0  0
   -2.6765    1.6558    0.0000 C   0  0  0  0  0  0  0  0  0  0  0  0
   -0.4077   -0.8972    0.0000 C   0  0  0  0  0  0  0  0  0  0  0  0
    1.4386    2.2437    0.0000 C   0  0  0  0  0  0  0  0  0  0  0  0
    6.7060    0.8836    0.0000 O   0  0  0  0  0  0  0  0  0  0  0  0
    8.0050    1.6336    0.0000 O   0  0  0  0  0  0  0  0  0  0  0  0
    5.4070    4.6336    0.0000 C   0  0  0  0  0  0  0  0  0  0  0  0
   10.7813    5.1231    0.0000 O   0  0  0  0  0  0  0  0  0  0  0  0
  1  2  1  0
  2  3  1  0
  4  3  1  1
  4  5  1  0
  5  6  1  0
  1  6  1  0
  5  7  1  0
  7  8  1  0
  8  9  1  0
  9 10  2  0
  4 10  1  0
  8 11  1  6
 11 12  1  0
 12 13  1  0
 13 14  1  0
  7 14  1  0
 12 15  1  0
 15 16  1  0
 16 17  1  0
 11 17  1  0
 15 18  1  0
 18 19  1  0
 18 20  1  0
 20 21  2  0
 21 22  1  0
 22 23  1  0
 23 24  1  0
 23 25  1  0
 22 26  1  0
 21 27  1  0
 12 28  1  1
  8 29  1  0
 29 30  1  0
  4 30  1  0
  5 31  1  1
  2 32  1  0
M  END
>  <cdk:Title>  (658) 
(3beta_22E_24R)-5_8-Epidioxy-23-methylergosta-6_22-dien-3-ol

>  <1A2>  (658) 
N

>  <2A6>  (658) 
N

>  <2B6>  (658) 
N

>  <2C8>  (658) 
N

>  <2C9>  (658) 
N

>  <2C19>  (658) 
N

>  <2D6>  (658) 
N

>  <2E1>  (658) 
N

>  <3A4>  (658) 
N

>  <Citation>  (658) 
Nucleic Acids Res. 2018. Jan 4;46(D1):D608-17. PMID:29140435
Nucleic Acids Res. 2018 Jan 4;46(D1):D1074-D1082. PMID:29126136
Nucleic Acids Res., 45:D380-388 (2017).  PMID:27924025
Nucleic Acids Res. 2016 Jan 4;44(D1):D1202-13. PMID:26400175

>  <ROMol>  (658) 
<rdkit.Chem.rdchem.Mol object at 0x7c2905dc5770>

>  <Drug_like>  (658) 
True

$$$$
Dehydrogenated ticlopidine
     RDKit          2D

 17 19  0  0  0  0  0  0  0  0999 V2000
   -1.0163    2.9919    0.0000 Cl  0  0  0  0  0  0  0  0  0  0  0  0
   -2.3117    3.7482    0.0000 C   0  0  0  0  0  0  0  0  0  0  0  0
   -3.6087    3.0002    0.0000 C   0  0  0  0  0  0  0  0  0  0  0  0
   -3.6089    1.5002    0.0000 C   0  0  0  0  0  0  0  0  0  0  0  0
   -2.3100    0.7500    0.0000 N   0  0  0  0  0  0  0  0  0  0  0  0
   -2.3100   -0.7500    0.0000 C   0  0  0  0  0  0  0  0  0  0  0  0
   -1.0100   -1.5000    0.0000 C   0  0  0  0  0  0  0  0  0  0  0  0
    0.2900   -0.7500    0.0000 C   0  0  0  0  0  0  0  0  0  0  0  0
    1.7200   -1.2100    0.0000 S   0  0  0  0  0  0  0  0  0  0  0  0
    2.6000    0.0000    0.0000 C   0  0  0  0  0  0  0  0  0  0  0  0
    1.7200    1.2100    0.0000 C   0  0  0  0  0  0  0  0  0  0  0  0
    0.2900    0.7500    0.0000 C   0  0  0  0  0  0  0  0  0  0  0  0
   -1.0100    1.5000    0.0000 C   0  0  0  0  0  0  0  0  0  0  0  0
   -4.9118    3.7523    0.0000 C   0  0  0  0  0  0  0  0  0  0  0  0
   -4.8979    5.2522    0.0000 C   0  0  0  0  0  0  0  0  0  0  0  0
   -3.6008    6.0103    0.0000 C   0  0  0  0  0  0  0  0  0  0  0  0
   -2.2978    5.2482    0.0000 C   0  0  0  0  0  0  0  0  0  0  0  0
  1  2  1  0
  2  3  2  0
  3  4  1  0
  4  5  1  0
  5  6  1  0
  6  7  2  0
  7  8  1  0
  8  9  1  0
  9 10  1  0
 10 11  2  0
 11 12  1  0
  8 12  2  0
 12 13  1  0
  5 13  1  0
  3 14  1  0
 14 15  2  0
 15 16  1  0
 16 17  2  0
  2 17  1  0
M  END
>  <cdk:Title>  (659) 
Dehydrogenated ticlopidine

>  <1A2>  (659) 
N

>  <2A6>  (659) 
N

>  <2B6>  (659) 
N

>  <2C8>  (659) 
N

>  <2C9>  (659) 
N

>  <2C19>  (659) 
N

>  <2D6>  (659) 
N

>  <2E1>  (659) 
N

>  <3A4>  (659) 
N

>  <Citation>  (659) 
Nucleic Acids Res. 2018. Jan 4;46(D1):D608-17. PMID:29140435
Nucleic Acids Res. 2018 Jan 4;46(D1):D1074-D1082. PMID:29126136
Nucleic Acids Res., 45:D380-388 (2017).  PMID:27924025
Nucleic Acids Res. 2016 Jan 4;44(D1):D1202-13. PMID:26400175

>  <ROMol>  (659) 
<rdkit.Chem.rdchem.Mol object at 0x7c2905dc58c0>

>  <Drug_like>  (659) 
True

$$$$
(3S)-Hex-1-en-3-ol
     RDKit          2D

  7  6  0  0  0  0  0  0  0  0999 V2000
    7.7942   -0.0000    0.0000 C   0  0  0  0  0  0  0  0  0  0  0  0
    6.4952   -0.7500    0.0000 C   0  0  0  0  0  0  0  0  0  0  0  0
    4.7805    0.2400    0.0000 C   0  0  0  0  0  0  0  0  0  0  0  0
    3.4814   -0.5100    0.0000 C   0  0  0  0  0  0  0  0  0  0  0  0
    2.1824    0.2400    0.0000 C   0  0  0  0  0  0  0  0  0  0  0  0
    2.1824    1.7400    0.0000 C   0  0  0  0  0  0  0  0  0  0  0  0
    2.5172   -1.6591    0.0000 O   0  0  0  0  0  0  0  0  0  0  0  0
  1  2  1  0
  2  3  1  0
  3  4  1  0
  4  5  1  0
  5  6  2  0
  4  7  1  0
M  END
>  <cdk:Title>  (660) 
(3S)-Hex-1-en-3-ol

>  <1A2>  (660) 
N

>  <2A6>  (660) 
N

>  <2B6>  (660) 
N

>  <2C8>  (660) 
N

>  <2C9>  (660) 
N

>  <2C19>  (660) 
N

>  <2D6>  (660) 
N

>  <2E1>  (660) 
N

>  <3A4>  (660) 
N

>  <Citation>  (660) 
Nucleic Acids Res. 2018. Jan 4;46(D1):D608-17. PMID:29140435
Nucleic Acids Res. 2018 Jan 4;46(D1):D1074-D1082. PMID:29126136
Nucleic Acids Res., 45:D380-388 (2017).  PMID:27924025
Nucleic Acids Res. 2016 Jan 4;44(D1):D1202-13. PMID:26400175

>  <ROMol>  (660) 
<rdkit.Chem.rdchem.Mol object at 0x7c2905dc59a0>

>  <Drug_like>  (660) 
True

$$$$
Nicotinamide ribotide
     RDKit          2D

 22 23  0  0  0  0  0  0  0  0999 V2000
   -2.4701   -4.6518    0.0000 C   0  0  0  0  0  0  0  0  0  0  0  0
   -3.7691   -5.4018    0.0000 C   0  0  0  0  0  0  0  0  0  0  0  0
   -3.7600   -6.8977    0.0000 C   0  0  0  0  0  0  0  0  0  0  0  0
   -2.4691   -7.6535    0.0000 C   0  0  0  0  0  0  0  0  0  0  0  0
   -1.1701   -6.9035    0.0000 C   0  0  0  0  0  0  0  0  0  0  0  0
   -1.1706   -5.4027    0.0000 N   0  0  0  0  0  0  0  0  0  0  0  0
    0.5441   -4.4127    0.0000 C   0  0  0  0  0  0  0  0  0  0  0  0
   -0.3338   -3.2055    0.0000 C   0  0  0  0  0  0  0  0  0  0  0  0
   -1.8050   -1.8804    0.0000 O   0  0  0  0  0  0  0  0  0  0  0  0
    0.5484   -1.9923    0.0000 C   0  0  0  0  0  0  0  0  0  0  0  0
    1.1599   -0.6226    0.0000 O   0  0  0  0  0  0  0  0  0  0  0  0
    1.9674   -2.4555    0.0000 C   0  0  0  0  0  0  0  0  0  0  0  0
    1.9675   -3.9516    0.0000 O   0  0  0  0  0  0  0  0  0  0  0  0
    3.4591   -2.6128    0.0000 C   0  0  0  0  0  0  0  0  0  0  0  0
    4.3413   -1.3997    0.0000 O   0  0  0  0  0  0  0  0  0  0  0  0
    5.8330   -1.5571    0.0000 P   0  0  0  0  0  0  0  0  0  0  0  0
    5.7290   -0.0607    0.0000 O   0  0  0  0  0  0  0  0  0  0  0  0
    7.2886   -1.1948    0.0000 O   0  0  0  0  0  0  0  0  0  0  0  0
    6.4426   -2.9276    0.0000 O   0  0  0  0  0  0  0  0  0  0  0  0
   -5.0705   -4.6558    0.0000 C   0  0  0  0  0  0  0  0  0  0  0  0
   -5.0750   -3.1558    0.0000 O   0  0  0  0  0  0  0  0  0  0  0  0
   -6.3672   -5.4098    0.0000 N   0  0  0  0  0  0  0  0  0  0  0  0
  1  2  2  0
  2  3  1  0
  3  4  2  0
  4  5  1  0
  5  6  2  0
  1  6  1  0
  6  7  1  0
  7  8  1  0
  8  9  1  0
  8 10  1  0
 10 11  1  0
 10 12  1  0
 12 13  1  0
  7 13  1  0
 12 14  1  0
 14 15  1  0
 15 16  1  0
 16 17  2  0
 16 18  1  0
 16 19  1  0
  2 20  1  0
 20 21  2  0
 20 22  1  0
M  CHG  2   6   1  18  -1
M  END
>  <cdk:Title>  (661) 
Nicotinamide ribotide

>  <1A2>  (661) 
N

>  <2A6>  (661) 
N

>  <2B6>  (661) 
N

>  <2C8>  (661) 
N

>  <2C9>  (661) 
N

>  <2C19>  (661) 
N

>  <2D6>  (661) 
N

>  <2E1>  (661) 
N

>  <3A4>  (661) 
N

>  <Citation>  (661) 
Nucleic Acids Res. 2018. Jan 4;46(D1):D608-17. PMID:29140435
Nucleic Acids Res. 2018 Jan 4;46(D1):D1074-D1082. PMID:29126136
Nucleic Acids Res., 45:D380-388 (2017).  PMID:27924025
Nucleic Acids Res. 2016 Jan 4;44(D1):D1202-13. PMID:26400175

>  <ROMol>  (661) 
<rdkit.Chem.rdchem.Mol object at 0x7c2905dc5a10>

>  <Drug_like>  (661) 
True

$$$$
Murocholic acid
     RDKit          2D

 28 31  0  0  0  0  0  0  0  0999 V2000
   -4.5127   -6.6457    0.0000 C   0  0  0  0  0  0  0  0  0  0  0  0
   -4.5127   -5.1457    0.0000 C   0  0  0  0  0  0  0  0  0  0  0  0
   -3.2127   -4.3957    0.0000 C   0  0  0  0  0  0  0  0  0  0  0  0
   -1.9127   -5.1457    0.0000 C   0  0  0  0  0  0  0  0  0  0  0  0
   -1.9127   -6.6457    0.0000 C   0  0  0  0  0  0  0  0  0  0  0  0
   -3.2127   -7.3957    0.0000 C   0  0  0  0  0  0  0  0  0  0  0  0
   -0.6127   -7.3957    0.0000 C   0  0  0  0  0  0  0  0  0  0  0  0
    0.6873   -6.6457    0.0000 C   0  0  0  0  0  0  0  0  0  0  0  0
    0.6873   -5.1457    0.0000 C   0  0  0  0  0  0  0  0  0  0  0  0
    1.9873   -4.3957    0.0000 C   0  0  0  0  0  0  0  0  0  0  0  0
    3.4173   -4.8557    0.0000 C   0  0  0  0  0  0  0  0  0  0  0  0
    4.2973   -3.6457    0.0000 C   0  0  0  0  0  0  0  0  0  0  0  0
    3.4173   -2.4257    0.0000 C   0  0  0  0  0  0  0  0  0  0  0  0
    5.9652   -0.9586    0.0000 C   0  0  0  0  0  0  0  0  0  0  0  0
    7.6787   -1.9506    0.0000 C   0  0  0  0  0  0  0  0  0  0  0  0
    8.9786   -1.2021    0.0000 C   0  0  0  0  0  0  0  0  0  0  0  0
   10.2768   -1.9536    0.0000 C   0  0  0  0  0  0  0  0  0  0  0  0
   10.2751   -3.4536    0.0000 O   0  0  0  0  0  0  0  0  0  0  0  0
   11.5767   -1.2051    0.0000 O   0  0  0  0  0  0  0  0  0  0  0  0
    5.5408    1.4645    0.0000 C   0  0  0  0  0  0  0  0  0  0  0  0
    1.9873   -2.8957    0.0000 C   0  0  0  0  0  0  0  0  0  0  0  0
    2.2892    0.0288    0.0000 C   0  0  0  0  0  0  0  0  0  0  0  0
    0.6873   -2.1457    0.0000 C   0  0  0  0  0  0  0  0  0  0  0  0
   -0.6127   -2.8957    0.0000 C   0  0  0  0  0  0  0  0  0  0  0  0
   -0.6127   -4.3957    0.0000 C   0  0  0  0  0  0  0  0  0  0  0  0
   -2.1937   -9.2803    0.0000 O   0  0  0  0  0  0  0  0  0  0  0  0
   -1.9127   -2.2057    0.0000 C   0  0  0  0  0  0  0  0  0  0  0  0
   -5.9899   -6.3854    0.0000 O   0  0  0  0  0  0  0  0  0  0  0  0
  1  2  1  0
  2  3  1  0
  3  4  1  0
  4  5  1  0
  5  6  1  0
  1  6  1  0
  5  7  1  0
  7  8  1  0
  8  9  1  0
  9 10  1  0
 10 11  1  0
 11 12  1  0
 12 13  1  0
 13 14  1  0
 14 15  1  0
 15 16  1  0
 16 17  1  0
 17 18  2  0
 17 19  1  0
 14 20  1  0
 13 21  1  0
 10 21  1  0
 21 22  1  1
 21 23  1  0
 23 24  1  0
 24 25  1  0
  9 25  1  0
  4 25  1  0
  7 26  1  0
  4 27  1  1
  1 28  1  0
M  END
>  <cdk:Title>  (662) 
Murocholic acid

>  <1A2>  (662) 
N

>  <2A6>  (662) 
N

>  <2B6>  (662) 
N

>  <2C8>  (662) 
N

>  <2C9>  (662) 
N

>  <2C19>  (662) 
N

>  <2D6>  (662) 
N

>  <2E1>  (662) 
N

>  <3A4>  (662) 
N

>  <Citation>  (662) 
Nucleic Acids Res. 2018. Jan 4;46(D1):D608-17. PMID:29140435
Nucleic Acids Res. 2018 Jan 4;46(D1):D1074-D1082. PMID:29126136
Nucleic Acids Res., 45:D380-388 (2017).  PMID:27924025
Nucleic Acids Res. 2016 Jan 4;44(D1):D1202-13. PMID:26400175

>  <ROMol>  (662) 
<rdkit.Chem.rdchem.Mol object at 0x7c2905dc5a80>

>  <Drug_like>  (662) 
True

$$$$
13-Heptadecyn-1-ol
     RDKit          2D

 18 17  0  0  0  0  0  0  0  0999 V2000
    1.3983    7.3772    0.0000 O   0  0  0  0  0  0  0  0  0  0  0  0
    0.6483    6.0782    0.0000 C   0  0  0  0  0  0  0  0  0  0  0  0
    1.3983    4.7792    0.0000 C   0  0  0  0  0  0  0  0  0  0  0  0
    2.8983    4.7792    0.0000 C   0  0  0  0  0  0  0  0  0  0  0  0
    4.1283    2.6487    0.0000 C   0  0  0  0  0  0  0  0  0  0  0  0
    6.1083    2.6487    0.0000 C   0  0  0  0  0  0  0  0  0  0  0  0
    6.8583    1.3497    0.0000 C   0  0  0  0  0  0  0  0  0  0  0  0
    9.3183    1.3497    0.0000 C   0  0  0  0  0  0  0  0  0  0  0  0
   10.3083   -0.3650    0.0000 C   0  0  0  0  0  0  0  0  0  0  0  0
   12.2883   -0.3650    0.0000 C   0  0  0  0  0  0  0  0  0  0  0  0
   13.2783   -2.0798    0.0000 C   0  0  0  0  0  0  0  0  0  0  0  0
   15.2583   -2.0798    0.0000 C   0  0  0  0  0  0  0  0  0  0  0  0
   16.0083   -3.3788    0.0000 C   0  0  0  0  0  0  0  0  0  0  0  0
   17.5083   -3.3788    0.0000 C   0  0  0  0  0  0  0  0  0  0  0  0
   19.0083   -3.3788    0.0000 C   0  0  0  0  0  0  0  0  0  0  0  0
   20.5083   -3.3788    0.0000 C   0  0  0  0  0  0  0  0  0  0  0  0
   21.2583   -4.6778    0.0000 C   0  0  0  0  0  0  0  0  0  0  0  0
   22.7583   -4.6778    0.0000 C   0  0  0  0  0  0  0  0  0  0  0  0
  1  2  1  0
  2  3  1  0
  3  4  1  0
  4  5  1  0
  5  6  1  0
  6  7  1  0
  7  8  1  0
  8  9  1  0
  9 10  1  0
 10 11  1  0
 11 12  1  0
 12 13  1  0
 13 14  1  0
 14 15  3  0
 15 16  1  0
 16 17  1  0
 17 18  1  0
M  END
>  <cdk:Title>  (663) 
13-Heptadecyn-1-ol

>  <1A2>  (663) 
N

>  <2A6>  (663) 
N

>  <2B6>  (663) 
N

>  <2C8>  (663) 
N

>  <2C9>  (663) 
N

>  <2C19>  (663) 
N

>  <2D6>  (663) 
N

>  <2E1>  (663) 
N

>  <3A4>  (663) 
N

>  <Citation>  (663) 
Nucleic Acids Res. 2018. Jan 4;46(D1):D608-17. PMID:29140435
Nucleic Acids Res. 2018 Jan 4;46(D1):D1074-D1082. PMID:29126136
Nucleic Acids Res., 45:D380-388 (2017).  PMID:27924025
Nucleic Acids Res. 2016 Jan 4;44(D1):D1202-13. PMID:26400175

>  <ROMol>  (663) 
<rdkit.Chem.rdchem.Mol object at 0x7c2905dc5bd0>

>  <Drug_like>  (663) 
True

$$$$
2-Hexenoylcholine
     RDKit          2D

 14 13  0  0  0  0  0  0  0  0999 V2000
   14.0733    0.2689    0.0000 N   0  0  0  0  0  0  0  0  0  0  0  0
   11.5272   -1.2011    0.0000 C   0  0  0  0  0  0  0  0  0  0  0  0
   10.2281   -0.4511    0.0000 C   0  0  0  0  0  0  0  0  0  0  0  0
    8.9291   -1.2011    0.0000 O   0  0  0  0  0  0  0  0  0  0  0  0
    7.6301   -0.4511    0.0000 C   0  0  0  0  0  0  0  0  0  0  0  0
    6.3310   -1.2011    0.0000 C   0  0  0  0  0  0  0  0  0  0  0  0
    5.0320   -0.4511    0.0000 C   0  0  0  0  0  0  0  0  0  0  0  0
    3.7329   -1.2011    0.0000 C   0  0  0  0  0  0  0  0  0  0  0  0
    2.4339   -0.4511    0.0000 C   0  0  0  0  0  0  0  0  0  0  0  0
    1.1349   -1.2011    0.0000 C   0  0  0  0  0  0  0  0  0  0  0  0
    7.6301    1.0489    0.0000 O   0  0  0  0  0  0  0  0  0  0  0  0
   15.3723   -0.4811    0.0000 C   0  0  0  0  0  0  0  0  0  0  0  0
   15.0375    1.4180    0.0000 C   0  0  0  0  0  0  0  0  0  0  0  0
   13.1091    1.4180    0.0000 C   0  0  0  0  0  0  0  0  0  0  0  0
  1  2  1  0
  2  3  1  0
  3  4  1  0
  4  5  1  0
  5  6  1  0
  6  7  2  0
  7  8  1  0
  8  9  1  0
  9 10  1  0
  5 11  2  0
  1 12  1  0
  1 13  1  0
  1 14  1  0
M  CHG  1   1   1
M  END
>  <cdk:Title>  (664) 
2-Hexenoylcholine

>  <1A2>  (664) 
N

>  <2A6>  (664) 
N

>  <2B6>  (664) 
N

>  <2C8>  (664) 
N

>  <2C9>  (664) 
N

>  <2C19>  (664) 
N

>  <2D6>  (664) 
N

>  <2E1>  (664) 
N

>  <3A4>  (664) 
N

>  <Citation>  (664) 
Nucleic Acids Res. 2018. Jan 4;46(D1):D608-17. PMID:29140435
Nucleic Acids Res. 2018 Jan 4;46(D1):D1074-D1082. PMID:29126136
Nucleic Acids Res., 45:D380-388 (2017).  PMID:27924025
Nucleic Acids Res. 2016 Jan 4;44(D1):D1202-13. PMID:26400175

>  <ROMol>  (664) 
<rdkit.Chem.rdchem.Mol object at 0x7c2905dc5c40>

>  <Drug_like>  (664) 
True

$$$$
Jasminoside a
     RDKit          2D

 23 24  0  0  0  0  0  0  0  0999 V2000
    3.5195    1.1119    0.0000 C   0  0  0  0  0  0  0  0  0  0  0  0
    1.0970    0.6838    0.0000 C   0  0  0  0  0  0  0  0  0  0  0  0
    0.1317    1.8330    0.0000 C   0  0  0  0  0  0  0  0  0  0  0  0
   -1.3370    1.5691    0.0000 C   0  0  0  0  0  0  0  0  0  0  0  0
   -1.8497    0.1595    0.0000 C   0  0  0  0  0  0  0  0  0  0  0  0
   -0.8938   -0.9863    0.0000 C   0  0  0  0  0  0  0  0  0  0  0  0
   -0.2185   -2.8476    0.0000 C   0  0  0  0  0  0  0  0  0  0  0  0
   -3.4427   -2.4514    0.0000 C   0  0  0  0  0  0  0  0  0  0  0  0
    0.5843   -0.7258    0.0000 C   0  0  0  0  0  0  0  0  0  0  0  0
    2.0615   -0.9862    0.0000 C   0  0  0  0  0  0  0  0  0  0  0  0
    2.7389   -2.8467    0.0000 O   0  0  0  0  0  0  0  0  0  0  0  0
    4.2162   -3.1070    0.0000 C   0  0  0  0  0  0  0  0  0  0  0  0
    3.7099   -4.5084    0.0000 C   0  0  0  0  0  0  0  0  0  0  0  0
    4.6932   -5.6716    0.0000 C   0  0  0  0  0  0  0  0  0  0  0  0
    6.1741   -5.3985    0.0000 C   0  0  0  0  0  0  0  0  0  0  0  0
    6.6803   -3.9972    0.0000 C   0  0  0  0  0  0  0  0  0  0  0  0
    7.6415   -2.8456    0.0000 C   0  0  0  0  0  0  0  0  0  0  0  0
    9.1194   -3.1022    0.0000 O   0  0  0  0  0  0  0  0  0  0  0  0
    5.7125   -2.8501    0.0000 O   0  0  0  0  0  0  0  0  0  0  0  0
    7.6524   -5.6528    0.0000 O   0  0  0  0  0  0  0  0  0  0  0  0
    5.2153   -7.0778    0.0000 O   0  0  0  0  0  0  0  0  0  0  0  0
    2.7494   -5.6605    0.0000 O   0  0  0  0  0  0  0  0  0  0  0  0
   -2.3031    2.7165    0.0000 O   0  0  0  0  0  0  0  0  0  0  0  0
  1  2  1  0
  2  3  2  0
  3  4  1  0
  4  5  1  0
  5  6  1  0
  6  7  1  0
  6  8  1  0
  6  9  1  0
  2  9  1  0
  9 10  1  0
 10 11  1  0
 11 12  1  0
 12 13  1  0
 13 14  1  0
 14 15  1  0
 15 16  1  0
 16 17  1  0
 17 18  1  0
 16 19  1  0
 12 19  1  0
 15 20  1  0
 14 21  1  0
 13 22  1  0
  4 23  2  0
M  END
>  <cdk:Title>  (665) 
Jasminoside a

>  <1A2>  (665) 
N

>  <2A6>  (665) 
N

>  <2B6>  (665) 
N

>  <2C8>  (665) 
N

>  <2C9>  (665) 
N

>  <2C19>  (665) 
N

>  <2D6>  (665) 
N

>  <2E1>  (665) 
N

>  <3A4>  (665) 
N

>  <Citation>  (665) 
Nucleic Acids Res. 2018. Jan 4;46(D1):D608-17. PMID:29140435
Nucleic Acids Res. 2018 Jan 4;46(D1):D1074-D1082. PMID:29126136
Nucleic Acids Res., 45:D380-388 (2017).  PMID:27924025
Nucleic Acids Res. 2016 Jan 4;44(D1):D1202-13. PMID:26400175

>  <ROMol>  (665) 
<rdkit.Chem.rdchem.Mol object at 0x7c2905dc5d20>

>  <Drug_like>  (665) 
True

$$$$
3'-Dimethylallylkievitone
     RDKit          2D

 31 33  0  0  0  0  0  0  0  0999 V2000
    9.5349   -4.6128    0.0000 C   0  0  0  0  0  0  0  0  0  0  0  0
    8.5702   -5.7615    0.0000 C   0  0  0  0  0  0  0  0  0  0  0  0
    9.0828   -7.1713    0.0000 C   0  0  0  0  0  0  0  0  0  0  0  0
    7.0931   -5.5005    0.0000 C   0  0  0  0  0  0  0  0  0  0  0  0
    6.5806   -4.0908    0.0000 C   0  0  0  0  0  0  0  0  0  0  0  0
    5.1035   -3.8298    0.0000 C   0  0  0  0  0  0  0  0  0  0  0  0
    4.1382   -4.9789    0.0000 C   0  0  0  0  0  0  0  0  0  0  0  0
    2.6601   -4.7185    0.0000 C   0  0  0  0  0  0  0  0  0  0  0  0
    2.1474   -3.3088    0.0000 C   0  0  0  0  0  0  0  0  0  0  0  0
    3.1127   -2.1596    0.0000 C   0  0  0  0  0  0  0  0  0  0  0  0
    2.2719    0.1522    0.0000 C   0  0  0  0  0  0  0  0  0  0  0  0
    2.2719    1.6522    0.0000 C   0  0  0  0  0  0  0  0  0  0  0  0
    0.9719    2.4022    0.0000 O   0  0  0  0  0  0  0  0  0  0  0  0
   -0.3281    1.6522    0.0000 C   0  0  0  0  0  0  0  0  0  0  0  0
   -1.6281    2.4022    0.0000 C   0  0  0  0  0  0  0  0  0  0  0  0
   -1.6281    3.9022    0.0000 C   0  0  0  0  0  0  0  0  0  0  0  0
   -2.9272    4.6522    0.0000 C   0  0  0  0  0  0  0  0  0  0  0  0
   -2.9272    6.1522    0.0000 C   0  0  0  0  0  0  0  0  0  0  0  0
   -4.2262    6.9022    0.0000 C   0  0  0  0  0  0  0  0  0  0  0  0
   -1.6281    6.9022    0.0000 C   0  0  0  0  0  0  0  0  0  0  0  0
   -2.9281    1.6522    0.0000 C   0  0  0  0  0  0  0  0  0  0  0  0
   -2.9281    0.1522    0.0000 C   0  0  0  0  0  0  0  0  0  0  0  0
   -1.6281   -0.5978    0.0000 C   0  0  0  0  0  0  0  0  0  0  0  0
   -0.3281    0.1522    0.0000 C   0  0  0  0  0  0  0  0  0  0  0  0
    0.9719   -0.5978    0.0000 C   0  0  0  0  0  0  0  0  0  0  0  0
    0.9719   -2.0978    0.0000 O   0  0  0  0  0  0  0  0  0  0  0  0
   -1.6281   -2.0978    0.0000 O   0  0  0  0  0  0  0  0  0  0  0  0
   -4.2271    2.4024    0.0000 O   0  0  0  0  0  0  0  0  0  0  0  0
    4.5908   -2.4201    0.0000 C   0  0  0  0  0  0  0  0  0  0  0  0
    5.5550   -1.2711    0.0000 O   0  0  0  0  0  0  0  0  0  0  0  0
    4.6509   -6.3886    0.0000 O   0  0  0  0  0  0  0  0  0  0  0  0
  1  2  1  0
  2  3  1  0
  2  4  2  0
  4  5  1  0
  5  6  1  0
  6  7  2  0
  7  8  1  0
  8  9  2  0
  9 10  1  0
 10 11  1  0
 11 12  1  0
 12 13  1  0
 13 14  1  0
 14 15  2  0
 15 16  1  0
 16 17  1  0
 17 18  2  0
 18 19  1  0
 18 20  1  0
 15 21  1  0
 21 22  2  0
 22 23  1  0
 23 24  2  0
 14 24  1  0
 24 25  1  0
 11 25  1  0
 25 26  2  0
 23 27  1  0
 21 28  1  0
 10 29  2  0
  6 29  1  0
 29 30  1  0
  7 31  1  0
M  END
>  <cdk:Title>  (666) 
3'-Dimethylallylkievitone

>  <1A2>  (666) 
N

>  <2A6>  (666) 
N

>  <2B6>  (666) 
N

>  <2C8>  (666) 
N

>  <2C9>  (666) 
N

>  <2C19>  (666) 
N

>  <2D6>  (666) 
N

>  <2E1>  (666) 
N

>  <3A4>  (666) 
N

>  <Citation>  (666) 
Nucleic Acids Res. 2018. Jan 4;46(D1):D608-17. PMID:29140435
Nucleic Acids Res. 2018 Jan 4;46(D1):D1074-D1082. PMID:29126136
Nucleic Acids Res., 45:D380-388 (2017).  PMID:27924025
Nucleic Acids Res. 2016 Jan 4;44(D1):D1202-13. PMID:26400175

>  <ROMol>  (666) 
<rdkit.Chem.rdchem.Mol object at 0x7c2905dc5d90>

>  <Drug_like>  (666) 
True

$$$$
cis-3 And trans-2-hexenyl propionate
     RDKit          2D

 21 23  0  0  0  0  0  0  0  0999 V2000
    4.8716    2.0947    0.0000 C   0  0  0  0  0  0  0  0  0  0  0  0
    6.3277    1.8602    0.0000 C   0  0  0  0  0  0  0  0  0  0  0  0
    6.8870    0.4207    0.0000 C   0  0  0  0  0  0  0  0  0  0  0  0
    5.9286   -0.7332    0.0000 C   0  0  0  0  0  0  0  0  0  0  0  0
    4.4109   -0.4476    0.0000 C   0  0  0  0  0  0  0  0  0  0  0  0
    3.9132    0.9408    0.0000 C   0  0  0  0  0  0  0  0  0  0  0  0
    1.9632    1.2844    0.0000 C   0  0  0  0  0  0  0  0  0  0  0  0
    1.9632   -0.2156    0.0000 C   0  0  0  0  0  0  0  0  0  0  0  0
    0.6632   -0.9656    0.0000 C   0  0  0  0  0  0  0  0  0  0  0  0
   -0.6368   -0.2156    0.0000 C   0  0  0  0  0  0  0  0  0  0  0  0
   -1.9368   -0.9656    0.0000 C   0  0  0  0  0  0  0  0  0  0  0  0
   -3.2368   -0.2156    0.0000 C   0  0  0  0  0  0  0  0  0  0  0  0
   -3.2368    1.2844    0.0000 C   0  0  0  0  0  0  0  0  0  0  0  0
   -1.9368    2.0344    0.0000 C   0  0  0  0  0  0  0  0  0  0  0  0
   -0.6368    1.2844    0.0000 C   0  0  0  0  0  0  0  0  0  0  0  0
    0.6632    2.0344    0.0000 O   0  0  0  0  0  0  0  0  0  0  0  0
   -4.5357    2.0346    0.0000 O   0  0  0  0  0  0  0  0  0  0  0  0
   -1.9368   -2.4656    0.0000 O   0  0  0  0  0  0  0  0  0  0  0  0
   -0.3008   -2.1148    0.0000 O   0  0  0  0  0  0  0  0  0  0  0  0
    2.6400   -2.0763    0.0000 O   0  0  0  0  0  0  0  0  0  0  0  0
    8.3676    0.1799    0.0000 O   0  0  0  0  0  0  0  0  0  0  0  0
  1  2  2  0
  2  3  1  0
  3  4  2  0
  4  5  1  0
  5  6  2  0
  1  6  1  0
  6  7  1  0
  7  8  1  0
  8  9  1  0
  9 10  1  0
 10 11  2  0
 11 12  1  0
 12 13  2  0
 13 14  1  0
 14 15  2  0
 10 15  1  0
 15 16  1  0
  7 16  1  0
 13 17  1  0
 11 18  1  0
  9 19  1  0
  8 20  1  0
  3 21  1  0
M  END
>  <cdk:Title>  (667) 
cis-3 And trans-2-hexenyl propionate

>  <1A2>  (667) 
N

>  <2A6>  (667) 
N

>  <2B6>  (667) 
N

>  <2C8>  (667) 
N

>  <2C9>  (667) 
N

>  <2C19>  (667) 
N

>  <2D6>  (667) 
N

>  <2E1>  (667) 
N

>  <3A4>  (667) 
N

>  <Citation>  (667) 
Nucleic Acids Res. 2018. Jan 4;46(D1):D608-17. PMID:29140435
Nucleic Acids Res. 2018 Jan 4;46(D1):D1074-D1082. PMID:29126136
Nucleic Acids Res., 45:D380-388 (2017).  PMID:27924025
Nucleic Acids Res. 2016 Jan 4;44(D1):D1202-13. PMID:26400175

>  <ROMol>  (667) 
<rdkit.Chem.rdchem.Mol object at 0x7c2905dc5e00>

>  <Drug_like>  (667) 
True

$$$$
1-Hydroxy-3_7-dimethoxyxanthone
     RDKit          2D

 20 22  0  0  0  0  0  0  0  0999 V2000
    6.4981    0.7504    0.0000 C   0  0  0  0  0  0  0  0  0  0  0  0
    5.1989    1.5002    0.0000 O   0  0  0  0  0  0  0  0  0  0  0  0
    3.9000    0.7500    0.0000 C   0  0  0  0  0  0  0  0  0  0  0  0
    3.9000   -0.7500    0.0000 C   0  0  0  0  0  0  0  0  0  0  0  0
    2.6000   -1.5000    0.0000 C   0  0  0  0  0  0  0  0  0  0  0  0
    1.3000   -0.7500    0.0000 C   0  0  0  0  0  0  0  0  0  0  0  0
    1.3000    0.7500    0.0000 C   0  0  0  0  0  0  0  0  0  0  0  0
    2.6000    1.5000    0.0000 C   0  0  0  0  0  0  0  0  0  0  0  0
    0.0000    1.5000    0.0000 C   0  0  0  0  0  0  0  0  0  0  0  0
   -1.3000    0.7500    0.0000 C   0  0  0  0  0  0  0  0  0  0  0  0
   -2.6000    1.5000    0.0000 C   0  0  0  0  0  0  0  0  0  0  0  0
   -3.9000    0.7500    0.0000 C   0  0  0  0  0  0  0  0  0  0  0  0
   -3.9000   -0.7500    0.0000 C   0  0  0  0  0  0  0  0  0  0  0  0
   -2.6000   -1.5000    0.0000 C   0  0  0  0  0  0  0  0  0  0  0  0
   -1.3000   -0.7500    0.0000 C   0  0  0  0  0  0  0  0  0  0  0  0
    0.0000   -1.5000    0.0000 O   0  0  0  0  0  0  0  0  0  0  0  0
   -5.1989   -1.5002    0.0000 O   0  0  0  0  0  0  0  0  0  0  0  0
   -6.4981   -0.7504    0.0000 C   0  0  0  0  0  0  0  0  0  0  0  0
   -2.6000    3.0000    0.0000 O   0  0  0  0  0  0  0  0  0  0  0  0
    0.0000    3.0000    0.0000 O   0  0  0  0  0  0  0  0  0  0  0  0
  1  2  1  0
  2  3  1  0
  3  4  2  0
  4  5  1  0
  5  6  2  0
  6  7  1  0
  7  8  2  0
  3  8  1  0
  7  9  1  0
  9 10  1  0
 10 11  2  0
 11 12  1  0
 12 13  2  0
 13 14  1  0
 14 15  2  0
 10 15  1  0
 15 16  1  0
  6 16  1  0
 13 17  1  0
 17 18  1  0
 11 19  1  0
  9 20  2  0
M  END
>  <cdk:Title>  (668) 
1-Hydroxy-3_7-dimethoxyxanthone

>  <1A2>  (668) 
N

>  <2A6>  (668) 
N

>  <2B6>  (668) 
N

>  <2C8>  (668) 
N

>  <2C9>  (668) 
N

>  <2C19>  (668) 
N

>  <2D6>  (668) 
N

>  <2E1>  (668) 
N

>  <3A4>  (668) 
N

>  <Citation>  (668) 
Nucleic Acids Res. 2018. Jan 4;46(D1):D608-17. PMID:29140435
Nucleic Acids Res. 2018 Jan 4;46(D1):D1074-D1082. PMID:29126136
Nucleic Acids Res., 45:D380-388 (2017).  PMID:27924025
Nucleic Acids Res. 2016 Jan 4;44(D1):D1202-13. PMID:26400175

>  <ROMol>  (668) 
<rdkit.Chem.rdchem.Mol object at 0x7c2905dc5e70>

>  <Drug_like>  (668) 
True

$$$$
11(R)-Hete
     RDKit          2D

 23 22  0  0  0  0  0  0  0  0999 V2000
    7.2320   -8.8970    0.0000 O   0  0  0  0  0  0  0  0  0  0  0  0
    5.7547   -9.1575    0.0000 C   0  0  0  0  0  0  0  0  0  0  0  0
    4.4557   -9.9075    0.0000 C   0  0  0  0  0  0  0  0  0  0  0  0
    4.4557  -11.4075    0.0000 C   0  0  0  0  0  0  0  0  0  0  0  0
    3.1567  -12.1575    0.0000 C   0  0  0  0  0  0  0  0  0  0  0  0
    1.8576  -11.4075    0.0000 C   0  0  0  0  0  0  0  0  0  0  0  0
    1.8576   -9.9075    0.0000 C   0  0  0  0  0  0  0  0  0  0  0  0
    0.5586   -9.1575    0.0000 C   0  0  0  0  0  0  0  0  0  0  0  0
    0.5586   -7.6575    0.0000 C   0  0  0  0  0  0  0  0  0  0  0  0
   -1.1561   -6.6675    0.0000 C   0  0  0  0  0  0  0  0  0  0  0  0
   -1.1561   -5.1675    0.0000 C   0  0  0  0  0  0  0  0  0  0  0  0
   -2.4552   -4.4175    0.0000 C   0  0  0  0  0  0  0  0  0  0  0  0
   -2.4552   -2.9175    0.0000 O   0  0  0  0  0  0  0  0  0  0  0  0
   -3.7542   -5.1675    0.0000 O   0  0  0  0  0  0  0  0  0  0  0  0
    5.7547   -7.6575    0.0000 C   0  0  0  0  0  0  0  0  0  0  0  0
    7.0538   -6.9075    0.0000 C   0  0  0  0  0  0  0  0  0  0  0  0
    8.3528   -7.6575    0.0000 C   0  0  0  0  0  0  0  0  0  0  0  0
    9.6519   -6.9075    0.0000 C   0  0  0  0  0  0  0  0  0  0  0  0
    9.6519   -5.4075    0.0000 C   0  0  0  0  0  0  0  0  0  0  0  0
   10.9509   -4.6575    0.0000 C   0  0  0  0  0  0  0  0  0  0  0  0
   10.9509   -2.1975    0.0000 C   0  0  0  0  0  0  0  0  0  0  0  0
   12.2499   -1.4475    0.0000 C   0  0  0  0  0  0  0  0  0  0  0  0
   12.2499    0.0525    0.0000 C   0  0  0  0  0  0  0  0  0  0  0  0
  1  2  1  0
  2  3  1  0
  3  4  1  0
  4  5  2  0
  5  6  1  0
  6  7  1  0
  7  8  2  0
  8  9  1  0
  9 10  1  0
 10 11  1  0
 11 12  1  0
 12 13  1  0
 12 14  2  0
  2 15  1  0
 15 16  2  0
 16 17  1  0
 17 18  2  0
 18 19  1  0
 19 20  1  0
 20 21  1  0
 21 22  1  0
 22 23  1  0
M  END
>  <cdk:Title>  (669) 
11(R)-Hete

>  <1A2>  (669) 
N

>  <2A6>  (669) 
N

>  <2B6>  (669) 
N

>  <2C8>  (669) 
N

>  <2C9>  (669) 
N

>  <2C19>  (669) 
N

>  <2D6>  (669) 
N

>  <2E1>  (669) 
N

>  <3A4>  (669) 
N

>  <Citation>  (669) 
Nucleic Acids Res. 2018. Jan 4;46(D1):D608-17. PMID:29140435
Nucleic Acids Res. 2018 Jan 4;46(D1):D1074-D1082. PMID:29126136
Nucleic Acids Res., 45:D380-388 (2017).  PMID:27924025
Nucleic Acids Res. 2016 Jan 4;44(D1):D1202-13. PMID:26400175

>  <ROMol>  (669) 
<rdkit.Chem.rdchem.Mol object at 0x7c2905dc5ee0>

>  <Drug_like>  (669) 
True

$$$$
(5Z_8Z_11Z_14Z)_16_[(2S_3S)_3_ethyloxiran_2_ yl]hexadeca_5_8_11_14_tetraenoic ac
     RDKit          2D

 23 23  0  0  0  0  0  0  0  0999 V2000
    6.2231   -8.3529    0.0000 C   0  0  0  0  0  0  0  0  0  0  0  0
    5.5469  -10.2138    0.0000 C   0  0  0  0  0  0  0  0  0  0  0  0
    4.0696   -9.9540    0.0000 C   0  0  0  0  0  0  0  0  0  0  0  0
    2.5924  -10.2148    0.0000 C   0  0  0  0  0  0  0  0  0  0  0  0
    1.6280   -9.0659    0.0000 C   0  0  0  0  0  0  0  0  0  0  0  0
    0.1508   -9.3267    0.0000 C   0  0  0  0  0  0  0  0  0  0  0  0
   -0.3619  -10.7363    0.0000 C   0  0  0  0  0  0  0  0  0  0  0  0
    0.6025  -11.8852    0.0000 C   0  0  0  0  0  0  0  0  0  0  0  0
    0.0898  -13.2948    0.0000 C   0  0  0  0  0  0  0  0  0  0  0  0
   -1.3874  -13.5556    0.0000 C   0  0  0  0  0  0  0  0  0  0  0  0
   -2.3518  -12.4068    0.0000 C   0  0  0  0  0  0  0  0  0  0  0  0
   -4.7743  -12.8345    0.0000 C   0  0  0  0  0  0  0  0  0  0  0  0
   -5.2871  -14.2441    0.0000 C   0  0  0  0  0  0  0  0  0  0  0  0
   -6.7642  -14.5049    0.0000 C   0  0  0  0  0  0  0  0  0  0  0  0
   -7.7286  -13.3560    0.0000 C   0  0  0  0  0  0  0  0  0  0  0  0
   -7.2159  -11.9464    0.0000 C   0  0  0  0  0  0  0  0  0  0  0  0
   -8.1803  -10.7975    0.0000 C   0  0  0  0  0  0  0  0  0  0  0  0
   -9.6575  -11.0583    0.0000 C   0  0  0  0  0  0  0  0  0  0  0  0
  -10.6219   -9.9095    0.0000 C   0  0  0  0  0  0  0  0  0  0  0  0
  -12.0991  -10.1702    0.0000 O   0  0  0  0  0  0  0  0  0  0  0  0
  -10.1092   -8.4998    0.0000 O   0  0  0  0  0  0  0  0  0  0  0  0
    4.5830  -11.3642    0.0000 O   0  0  0  0  0  0  0  0  0  0  0  0
    7.7002   -8.0916    0.0000 C   0  0  0  0  0  0  0  0  0  0  0  0
  1  2  1  0
  2  3  1  0
  3  4  1  0
  4  5  1  0
  5  6  2  0
  6  7  1  0
  7  8  1  0
  8  9  2  0
  9 10  1  0
 10 11  1  0
 11 12  2  0
 12 13  1  0
 13 14  1  0
 14 15  2  0
 15 16  1  0
 16 17  1  0
 17 18  1  0
 18 19  1  0
 19 20  1  0
 19 21  2  0
  3 22  1  0
  2 22  1  0
  1 23  1  0
M  END
>  <cdk:Title>  (670) 
(5Z_8Z_11Z_14Z)_16_[(2S_3S)_3_ethyloxiran_2_ yl]hexadeca_5_8_11_14_tetraenoic acid

>  <1A2>  (670) 
N

>  <2A6>  (670) 
N

>  <2B6>  (670) 
N

>  <2C8>  (670) 
N

>  <2C9>  (670) 
N

>  <2C19>  (670) 
N

>  <2D6>  (670) 
N

>  <2E1>  (670) 
N

>  <3A4>  (670) 
N

>  <Citation>  (670) 
Nucleic Acids Res. 2018. Jan 4;46(D1):D608-17. PMID:29140435
Nucleic Acids Res. 2018 Jan 4;46(D1):D1074-D1082. PMID:29126136
Nucleic Acids Res., 45:D380-388 (2017).  PMID:27924025
Nucleic Acids Res. 2016 Jan 4;44(D1):D1202-13. PMID:26400175

>  <ROMol>  (670) 
<rdkit.Chem.rdchem.Mol object at 0x7c2905dc5f50>

>  <Drug_like>  (670) 
True

$$$$
8-Desoxygartanin
     RDKit          2D

 28 30  0  0  0  0  0  0  0  0999 V2000
    7.7968    3.0006    0.0000 C   0  0  0  0  0  0  0  0  0  0  0  0
    6.4976    3.7504    0.0000 C   0  0  0  0  0  0  0  0  0  0  0  0
    6.4974    5.2504    0.0000 C   0  0  0  0  0  0  0  0  0  0  0  0
    5.1987    3.0002    0.0000 C   0  0  0  0  0  0  0  0  0  0  0  0
    5.1989    1.5002    0.0000 C   0  0  0  0  0  0  0  0  0  0  0  0
    3.9000    0.7500    0.0000 C   0  0  0  0  0  0  0  0  0  0  0  0
    3.9000   -0.7500    0.0000 C   0  0  0  0  0  0  0  0  0  0  0  0
    2.6000   -1.5000    0.0000 C   0  0  0  0  0  0  0  0  0  0  0  0
    2.6000   -3.0000    0.0000 C   0  0  0  0  0  0  0  0  0  0  0  0
    3.8990   -3.7500    0.0000 C   0  0  0  0  0  0  0  0  0  0  0  0
    3.8990   -5.2500    0.0000 C   0  0  0  0  0  0  0  0  0  0  0  0
    5.1981   -6.0000    0.0000 C   0  0  0  0  0  0  0  0  0  0  0  0
    2.6000   -6.0000    0.0000 C   0  0  0  0  0  0  0  0  0  0  0  0
    1.3000   -0.7500    0.0000 C   0  0  0  0  0  0  0  0  0  0  0  0
    1.3000    0.7500    0.0000 C   0  0  0  0  0  0  0  0  0  0  0  0
    2.6000    1.5000    0.0000 C   0  0  0  0  0  0  0  0  0  0  0  0
    2.6000    3.0000    0.0000 O   0  0  0  0  0  0  0  0  0  0  0  0
    0.0000    1.5000    0.0000 C   0  0  0  0  0  0  0  0  0  0  0  0
   -1.3000    0.7500    0.0000 C   0  0  0  0  0  0  0  0  0  0  0  0
   -2.6000    1.5000    0.0000 C   0  0  0  0  0  0  0  0  0  0  0  0
   -3.9000    0.7500    0.0000 C   0  0  0  0  0  0  0  0  0  0  0  0
   -3.9000   -0.7500    0.0000 C   0  0  0  0  0  0  0  0  0  0  0  0
   -2.6000   -1.5000    0.0000 C   0  0  0  0  0  0  0  0  0  0  0  0
   -1.3000   -0.7500    0.0000 C   0  0  0  0  0  0  0  0  0  0  0  0
    0.0000   -1.5000    0.0000 O   0  0  0  0  0  0  0  0  0  0  0  0
   -2.6000   -3.0000    0.0000 O   0  0  0  0  0  0  0  0  0  0  0  0
    0.0000    3.0000    0.0000 O   0  0  0  0  0  0  0  0  0  0  0  0
    5.1989   -1.5002    0.0000 O   0  0  0  0  0  0  0  0  0  0  0  0
  1  2  1  0
  2  3  1  0
  2  4  2  0
  4  5  1  0
  5  6  1  0
  6  7  2  0
  7  8  1  0
  8  9  1  0
  9 10  1  0
 10 11  2  0
 11 12  1  0
 11 13  1  0
  8 14  2  0
 14 15  1  0
 15 16  2  0
  6 16  1  0
 16 17  1  0
 15 18  1  0
 18 19  1  0
 19 20  2  0
 20 21  1  0
 21 22  2  0
 22 23  1  0
 23 24  2  0
 19 24  1  0
 24 25  1  0
 14 25  1  0
 23 26  1  0
 18 27  2  0
  7 28  1  0
M  END
>  <cdk:Title>  (671) 
8-Desoxygartanin

>  <1A2>  (671) 
N

>  <2A6>  (671) 
N

>  <2B6>  (671) 
N

>  <2C8>  (671) 
N

>  <2C9>  (671) 
N

>  <2C19>  (671) 
N

>  <2D6>  (671) 
N

>  <2E1>  (671) 
N

>  <3A4>  (671) 
N

>  <Citation>  (671) 
Nucleic Acids Res. 2018. Jan 4;46(D1):D608-17. PMID:29140435
Nucleic Acids Res. 2018 Jan 4;46(D1):D1074-D1082. PMID:29126136
Nucleic Acids Res., 45:D380-388 (2017).  PMID:27924025
Nucleic Acids Res. 2016 Jan 4;44(D1):D1202-13. PMID:26400175

>  <ROMol>  (671) 
<rdkit.Chem.rdchem.Mol object at 0x7c2905dc5fc0>

>  <Drug_like>  (671) 
True

$$$$
Gibberellin A66
     RDKit          2D

 27 30  0  0  0  0  0  0  0  0999 V2000
    6.0577    1.2162    0.0000 C   0  0  0  0  0  0  0  0  0  0  0  0
    4.6116    1.6148    0.0000 C   0  0  0  0  0  0  0  0  0  0  0  0
    4.3416    3.0848    0.0000 C   0  0  0  0  0  0  0  0  0  0  0  0
    3.0216    3.8048    0.0000 C   0  0  0  0  0  0  0  0  0  0  0  0
    1.6416    3.2148    0.0000 C   0  0  0  0  0  0  0  0  0  0  0  0
    1.2416    1.7648    0.0000 C   0  0  0  0  0  0  0  0  0  0  0  0
   -0.1784    1.3048    0.0000 C   0  0  0  0  0  0  0  0  0  0  0  0
   -1.4784    2.0548    0.0000 C   0  0  0  0  0  0  0  0  0  0  0  0
   -2.7784    1.3048    0.0000 C   0  0  0  0  0  0  0  0  0  0  0  0
   -2.7784   -0.1952    0.0000 C   0  0  0  0  0  0  0  0  0  0  0  0
   -1.4784   -0.9452    0.0000 C   0  0  0  0  0  0  0  0  0  0  0  0
   -3.3679   -3.1976    0.0000 C   0  0  0  0  0  0  0  0  0  0  0  0
   -0.1784   -0.1952    0.0000 C   0  0  0  0  0  0  0  0  0  0  0  0
    1.2416   -0.6652    0.0000 C   0  0  0  0  0  0  0  0  0  0  0  0
    0.4285   -2.4706    0.0000 C   0  0  0  0  0  0  0  0  0  0  0  0
   -1.0639   -2.6210    0.0000 O   0  0  0  0  0  0  0  0  0  0  0  0
    1.8659   -4.4670    0.0000 O   0  0  0  0  0  0  0  0  0  0  0  0
    2.1316    0.5548    0.0000 C   0  0  0  0  0  0  0  0  0  0  0  0
    2.6316    2.3948    0.0000 C   0  0  0  0  0  0  0  0  0  0  0  0
    3.6216    0.4848    0.0000 C   0  0  0  0  0  0  0  0  0  0  0  0
    3.2199   -0.9604    0.0000 O   0  0  0  0  0  0  0  0  0  0  0  0
   -0.4731   -3.7080    0.0000 C   0  0  0  0  0  0  0  0  0  0  0  0
    1.0040   -3.9687    0.0000 O   0  0  0  0  0  0  0  0  0  0  0  0
   -2.0546   -5.5923    0.0000 O   0  0  0  0  0  0  0  0  0  0  0  0
    0.1298    4.2286    0.0000 C   0  0  0  0  0  0  0  0  0  0  0  0
    1.5853    4.5910    0.0000 O   0  0  0  0  0  0  0  0  0  0  0  0
   -1.0835    5.1106    0.0000 O   0  0  0  0  0  0  0  0  0  0  0  0
  1  2  2  0
  2  3  1  0
  3  4  1  0
  4  5  1  0
  5  6  1  0
  6  7  1  0
  7  8  1  0
  8  9  1  0
  9 10  1  0
 10 11  1  0
 11 12  1  1
 11 13  1  0
  7 13  1  0
 13 14  1  0
 14 15  1  0
 15 16  2  0
 15 17  1  0
 18 14  1  6
  6 18  1  0
 18 19  1  0
  3 19  1  0
 18 20  1  0
  2 20  1  0
 20 21  1  0
 11 22  1  0
 22 23  2  0
 22 24  1  0
  7 25  1  1
 25 26  2  0
 25 27  1  0
M  END
>  <cdk:Title>  (672) 
Gibberellin A66

>  <1A2>  (672) 
N

>  <2A6>  (672) 
N

>  <2B6>  (672) 
N

>  <2C8>  (672) 
N

>  <2C9>  (672) 
N

>  <2C19>  (672) 
N

>  <2D6>  (672) 
N

>  <2E1>  (672) 
N

>  <3A4>  (672) 
N

>  <Citation>  (672) 
Nucleic Acids Res. 2018. Jan 4;46(D1):D608-17. PMID:29140435
Nucleic Acids Res. 2018 Jan 4;46(D1):D1074-D1082. PMID:29126136
Nucleic Acids Res., 45:D380-388 (2017).  PMID:27924025
Nucleic Acids Res. 2016 Jan 4;44(D1):D1202-13. PMID:26400175

>  <ROMol>  (672) 
<rdkit.Chem.rdchem.Mol object at 0x7c2905dc6030>

>  <Drug_like>  (672) 
True

$$$$
17-Hydroxyandrostane-3-glucuronide
     RDKit          2D

 33 37  0  0  0  0  0  0  0  0999 V2000
   -6.2335   10.2259    0.0000 O   0  0  0  0  0  0  0  0  0  0  0  0
   -6.7462    8.8163    0.0000 C   0  0  0  0  0  0  0  0  0  0  0  0
   -6.9524    7.3379    0.0000 C   0  0  0  0  0  0  0  0  0  0  0  0
   -8.4295    7.0771    0.0000 C   0  0  0  0  0  0  0  0  0  0  0  0
   -8.9421    5.6665    0.0000 C   0  0  0  0  0  0  0  0  0  0  0  0
   -7.9775    4.5167    0.0000 C   0  0  0  0  0  0  0  0  0  0  0  0
   -8.4900    3.1061    0.0000 C   0  0  0  0  0  0  0  0  0  0  0  0
   -9.9672    2.8453    0.0000 C   0  0  0  0  0  0  0  0  0  0  0  0
  -10.9318    3.9952    0.0000 C   0  0  0  0  0  0  0  0  0  0  0  0
  -10.4192    5.4058    0.0000 C   0  0  0  0  0  0  0  0  0  0  0  0
  -10.4798    1.4348    0.0000 C   0  0  0  0  0  0  0  0  0  0  0  0
   -9.5152    0.2849    0.0000 C   0  0  0  0  0  0  0  0  0  0  0  0
   -8.0380    0.5457    0.0000 C   0  0  0  0  0  0  0  0  0  0  0  0
   -7.5254    1.9563    0.0000 C   0  0  0  0  0  0  0  0  0  0  0  0
   -8.5093   -2.4776    0.0000 O   0  0  0  0  0  0  0  0  0  0  0  0
   -9.4734   -3.6268    0.0000 C   0  0  0  0  0  0  0  0  0  0  0  0
  -10.7846   -4.3921    0.0000 O   0  0  0  0  0  0  0  0  0  0  0  0
  -10.7884   -5.8929    0.0000 C   0  0  0  0  0  0  0  0  0  0  0  0
   -9.4996   -6.6408    0.0000 C   0  0  0  0  0  0  0  0  0  0  0  0
   -8.1898   -5.8978    0.0000 C   0  0  0  0  0  0  0  0  0  0  0  0
   -8.1846   -4.3746    0.0000 C   0  0  0  0  0  0  0  0  0  0  0  0
   -6.7082   -4.6395    0.0000 O   0  0  0  0  0  0  0  0  0  0  0  0
   -7.6855   -7.3105    0.0000 O   0  0  0  0  0  0  0  0  0  0  0  0
  -10.4684   -7.7859    0.0000 O   0  0  0  0  0  0  0  0  0  0  0  0
  -12.2649   -5.6289    0.0000 C   0  0  0  0  0  0  0  0  0  0  0  0
  -13.2319   -6.7756    0.0000 O   0  0  0  0  0  0  0  0  0  0  0  0
  -12.7746   -4.2181    0.0000 O   0  0  0  0  0  0  0  0  0  0  0  0
   -5.5500    3.1068    0.0000 C   0  0  0  0  0  0  0  0  0  0  0  0
   -6.5003    4.7775    0.0000 C   0  0  0  0  0  0  0  0  0  0  0  0
   -5.9878    6.1881    0.0000 C   0  0  0  0  0  0  0  0  0  0  0  0
   -9.1294    8.3955    0.0000 C   0  0  0  0  0  0  0  0  0  0  0  0
   -8.0908    9.4725    0.0000 C   0  0  0  0  0  0  0  0  0  0  0  0
   -4.1266    8.1497    0.0000 C   0  0  0  0  0  0  0  0  0  0  0  0
  1  2  1  0
  2  3  1  0
  3  4  1  0
  4  5  1  0
  5  6  1  0
  6  7  1  0
  7  8  1  0
  8  9  1  0
  9 10  1  0
  5 10  1  0
  8 11  1  0
 11 12  1  0
 12 13  1  0
 13 14  1  0
  7 14  1  0
 12 15  1  0
 15 16  1  0
 16 17  1  0
 17 18  1  0
 18 19  1  0
 19 20  1  0
 20 21  1  0
 16 21  1  0
 21 22  1  0
 20 23  1  0
 19 24  1  0
 18 25  1  0
 25 26  1  0
 25 27  2  0
  7 28  1  1
  6 29  1  0
 29 30  1  0
  3 30  1  0
  4 31  1  0
 31 32  1  0
  2 32  1  0
  3 33  1  1
M  END
>  <cdk:Title>  (673) 
17-Hydroxyandrostane-3-glucuronide

>  <1A2>  (673) 
N

>  <2A6>  (673) 
N

>  <2B6>  (673) 
N

>  <2C8>  (673) 
N

>  <2C9>  (673) 
N

>  <2C19>  (673) 
N

>  <2D6>  (673) 
N

>  <2E1>  (673) 
N

>  <3A4>  (673) 
N

>  <Citation>  (673) 
Nucleic Acids Res. 2018. Jan 4;46(D1):D608-17. PMID:29140435
Nucleic Acids Res. 2018 Jan 4;46(D1):D1074-D1082. PMID:29126136
Nucleic Acids Res., 45:D380-388 (2017).  PMID:27924025
Nucleic Acids Res. 2016 Jan 4;44(D1):D1202-13. PMID:26400175

>  <ROMol>  (673) 
<rdkit.Chem.rdchem.Mol object at 0x7c2905dc60a0>

>  <Drug_like>  (673) 
True

$$$$
Gynocardin
     RDKit          2D

 21 22  0  0  0  0  0  0  0  0999 V2000
    2.3389   -3.6949    0.0000 C   0  0  0  0  0  0  0  0  0  0  0  0
    3.3100   -2.5490    0.0000 C   0  0  0  0  0  0  0  0  0  0  0  0
    2.5054   -1.2806    0.0000 C   0  0  0  0  0  0  0  0  0  0  0  0
    3.8506   -0.6169    0.0000 C   0  0  0  0  0  0  0  0  0  0  0  0
    5.1958    0.0468    0.0000 N   0  0  0  0  0  0  0  0  0  0  0  0
    1.0571   -1.6418    0.0000 C   0  0  0  0  0  0  0  0  0  0  0  0
    0.9539   -3.1382    0.0000 C   0  0  0  0  0  0  0  0  0  0  0  0
   -0.5236   -2.8796    0.0000 O   0  0  0  0  0  0  0  0  0  0  0  0
    0.8478   -0.1565    0.0000 O   0  0  0  0  0  0  0  0  0  0  0  0
    1.9891    0.1277    0.0000 O   0  0  0  0  0  0  0  0  0  0  0  0
    2.9507    1.2790    0.0000 C   0  0  0  0  0  0  0  0  0  0  0  0
    1.6603    2.0240    0.0000 C   0  0  0  0  0  0  0  0  0  0  0  0
    1.6621    3.5472    0.0000 C   0  0  0  0  0  0  0  0  0  0  0  0
    2.9703    4.2930    0.0000 C   0  0  0  0  0  0  0  0  0  0  0  0
    4.2607    3.5480    0.0000 C   0  0  0  0  0  0  0  0  0  0  0  0
    5.7378    3.2872    0.0000 C   0  0  0  0  0  0  0  0  0  0  0  0
    6.7023    4.4361    0.0000 O   0  0  0  0  0  0  0  0  0  0  0  0
    4.2602    2.0472    0.0000 O   0  0  0  0  0  0  0  0  0  0  0  0
    3.9366    5.4403    0.0000 O   0  0  0  0  0  0  0  0  0  0  0  0
    1.1548    4.9588    0.0000 O   0  0  0  0  0  0  0  0  0  0  0  0
   -0.2894    2.3694    0.0000 O   0  0  0  0  0  0  0  0  0  0  0  0
  1  2  2  0
  2  3  1  0
  3  4  1  1
  4  5  3  0
  3  6  1  0
  6  7  1  0
  1  7  1  0
  7  8  1  0
  6  9  1  0
  3 10  1  0
 10 11  1  0
 11 12  1  0
 12 13  1  0
 13 14  1  0
 14 15  1  0
 15 16  1  0
 16 17  1  0
 15 18  1  0
 11 18  1  0
 14 19  1  0
 13 20  1  0
 12 21  1  0
M  END
>  <cdk:Title>  (674) 
Gynocardin

>  <1A2>  (674) 
N

>  <2A6>  (674) 
N

>  <2B6>  (674) 
N

>  <2C8>  (674) 
N

>  <2C9>  (674) 
N

>  <2C19>  (674) 
N

>  <2D6>  (674) 
N

>  <2E1>  (674) 
N

>  <3A4>  (674) 
N

>  <Citation>  (674) 
Nucleic Acids Res. 2018. Jan 4;46(D1):D608-17. PMID:29140435
Nucleic Acids Res. 2018 Jan 4;46(D1):D1074-D1082. PMID:29126136
Nucleic Acids Res., 45:D380-388 (2017).  PMID:27924025
Nucleic Acids Res. 2016 Jan 4;44(D1):D1202-13. PMID:26400175

>  <ROMol>  (674) 
<rdkit.Chem.rdchem.Mol object at 0x7c2905dc6110>

>  <Drug_like>  (674) 
True

$$$$
S-(3-Methyl-2-butenyl) ethanethioate
     RDKit          2D

  9  8  0  0  0  0  0  0  0  0999 V2000
    6.4952   -0.7500    0.0000 S   0  0  0  0  0  0  0  0  0  0  0  0
    5.1962   -0.0000    0.0000 C   0  0  0  0  0  0  0  0  0  0  0  0
    3.8971   -0.7500    0.0000 C   0  0  0  0  0  0  0  0  0  0  0  0
    2.5981   -0.0000    0.0000 C   0  0  0  0  0  0  0  0  0  0  0  0
    1.2990   -0.7500    0.0000 C   0  0  0  0  0  0  0  0  0  0  0  0
    2.5981    1.5000    0.0000 C   0  0  0  0  0  0  0  0  0  0  0  0
    7.7942   -0.0000    0.0000 C   0  0  0  0  0  0  0  0  0  0  0  0
    9.0933   -0.7500    0.0000 C   0  0  0  0  0  0  0  0  0  0  0  0
    7.7942    1.5000    0.0000 O   0  0  0  0  0  0  0  0  0  0  0  0
  1  2  1  0
  2  3  1  0
  3  4  2  0
  4  5  1  0
  4  6  1  0
  1  7  1  0
  7  8  1  0
  7  9  2  0
M  END
>  <cdk:Title>  (675) 
S-(3-Methyl-2-butenyl) ethanethioate

>  <1A2>  (675) 
N

>  <2A6>  (675) 
N

>  <2B6>  (675) 
N

>  <2C8>  (675) 
N

>  <2C9>  (675) 
N

>  <2C19>  (675) 
N

>  <2D6>  (675) 
N

>  <2E1>  (675) 
N

>  <3A4>  (675) 
N

>  <Citation>  (675) 
Nucleic Acids Res. 2018. Jan 4;46(D1):D608-17. PMID:29140435
Nucleic Acids Res. 2018 Jan 4;46(D1):D1074-D1082. PMID:29126136
Nucleic Acids Res., 45:D380-388 (2017).  PMID:27924025
Nucleic Acids Res. 2016 Jan 4;44(D1):D1202-13. PMID:26400175

>  <ROMol>  (675) 
<rdkit.Chem.rdchem.Mol object at 0x7c2905dc61f0>

>  <Drug_like>  (675) 
True

$$$$
2-[(Methylthio)methyl]-2-butenal
     RDKit          2D

  8  7  0  0  0  0  0  0  0  0999 V2000
    6.3878    1.6649    0.0000 C   0  0  0  0  0  0  0  0  0  0  0  0
    5.0887    2.4149    0.0000 C   0  0  0  0  0  0  0  0  0  0  0  0
    3.7897    1.6649    0.0000 C   0  0  0  0  0  0  0  0  0  0  0  0
    3.7897    0.1649    0.0000 C   0  0  0  0  0  0  0  0  0  0  0  0
    5.0887   -0.5851    0.0000 O   0  0  0  0  0  0  0  0  0  0  0  0
    2.4907    2.4149    0.0000 C   0  0  0  0  0  0  0  0  0  0  0  0
    1.1916    1.6649    0.0000 S   0  0  0  0  0  0  0  0  0  0  0  0
   -0.1074    2.4149    0.0000 C   0  0  0  0  0  0  0  0  0  0  0  0
  1  2  1  0
  2  3  2  0
  3  4  1  0
  4  5  2  0
  3  6  1  0
  6  7  1  0
  7  8  1  0
M  END
>  <cdk:Title>  (676) 
2-[(Methylthio)methyl]-2-butenal

>  <1A2>  (676) 
N

>  <2A6>  (676) 
N

>  <2B6>  (676) 
N

>  <2C8>  (676) 
N

>  <2C9>  (676) 
N

>  <2C19>  (676) 
N

>  <2D6>  (676) 
N

>  <2E1>  (676) 
N

>  <3A4>  (676) 
N

>  <Citation>  (676) 
Nucleic Acids Res. 2018. Jan 4;46(D1):D608-17. PMID:29140435
Nucleic Acids Res. 2018 Jan 4;46(D1):D1074-D1082. PMID:29126136
Nucleic Acids Res., 45:D380-388 (2017).  PMID:27924025
Nucleic Acids Res. 2016 Jan 4;44(D1):D1202-13. PMID:26400175

>  <ROMol>  (676) 
<rdkit.Chem.rdchem.Mol object at 0x7c2905dc6260>

>  <Drug_like>  (676) 
True

$$$$
ZINC8219880
     RDKit          2D

 29 28  0  0  0  0  0  0  0  0999 V2000
   20.4665  -14.9691    0.0000 C   0  0  0  0  0  0  0  0  0  0  0  0
   18.9498  -16.2418    0.0000 C   0  0  0  0  0  0  0  0  0  0  0  0
   18.1998  -17.5408    0.0000 C   0  0  0  0  0  0  0  0  0  0  0  0
   18.1998  -14.9428    0.0000 C   0  0  0  0  0  0  0  0  0  0  0  0
   16.6998  -14.9428    0.0000 C   0  0  0  0  0  0  0  0  0  0  0  0
   15.4698  -12.8123    0.0000 C   0  0  0  0  0  0  0  0  0  0  0  0
   13.9698  -12.8123    0.0000 C   0  0  0  0  0  0  0  0  0  0  0  0
   12.5602  -13.3254    0.0000 C   0  0  0  0  0  0  0  0  0  0  0  0
   12.4998  -10.2662    0.0000 C   0  0  0  0  0  0  0  0  0  0  0  0
   10.5198  -10.2662    0.0000 C   0  0  0  0  0  0  0  0  0  0  0  0
    9.5298   -8.5515    0.0000 C   0  0  0  0  0  0  0  0  0  0  0  0
    7.5498   -8.5515    0.0000 C   0  0  0  0  0  0  0  0  0  0  0  0
    6.1402   -9.0645    0.0000 C   0  0  0  0  0  0  0  0  0  0  0  0
    6.3198   -6.4211    0.0000 C   0  0  0  0  0  0  0  0  0  0  0  0
    3.3798   -6.4211    0.0000 C   0  0  0  0  0  0  0  0  0  0  0  0
    2.6298   -5.1220    0.0000 C   0  0  0  0  0  0  0  0  0  0  0  0
    0.6498   -5.1220    0.0000 C   0  0  0  0  0  0  0  0  0  0  0  0
   -0.1002   -6.4211    0.0000 C   0  0  0  0  0  0  0  0  0  0  0  0
   -1.6002   -6.4211    0.0000 C   0  0  0  0  0  0  0  0  0  0  0  0
   -2.3502   -7.7201    0.0000 O   0  0  0  0  0  0  0  0  0  0  0  0
   -3.8502   -7.7201    0.0000 P   0  0  0  0  0  0  0  0  0  0  0  0
   -4.6002   -6.4211    0.0000 O   0  0  0  0  0  0  0  0  0  0  0  0
   -6.1002   -6.4211    0.0000 P   0  0  0  0  0  0  0  0  0  0  0  0
   -6.8502   -7.7201    0.0000 O   0  0  0  0  0  0  0  0  0  0  0  0
   -7.5098   -5.9080    0.0000 O   0  0  0  0  0  0  0  0  0  0  0  0
   -5.8398   -4.9439    0.0000 O   0  0  0  0  0  0  0  0  0  0  0  0
   -5.2598   -8.2331    0.0000 O   0  0  0  0  0  0  0  0  0  0  0  0
   -3.5898   -9.1973    0.0000 O   0  0  0  0  0  0  0  0  0  0  0  0
   -0.1002   -3.8230    0.0000 C   0  0  0  0  0  0  0  0  0  0  0  0
  1  2  1  0
  2  3  1  0
  2  4  1  0
  4  5  1  0
  5  6  1  0
  6  7  1  0
  7  8  1  0
  7  9  1  0
  9 10  1  0
 10 11  1  0
 11 12  1  0
 12 13  1  0
 12 14  1  0
 14 15  1  0
 15 16  1  0
 16 17  1  0
 17 18  2  0
 18 19  1  0
 19 20  1  0
 20 21  1  0
 21 22  1  0
 22 23  1  0
 23 24  1  0
 23 25  2  0
 23 26  1  0
 21 27  2  0
 21 28  1  0
 17 29  1  0
M  END
>  <cdk:Title>  (677) 
ZINC8219880

>  <1A2>  (677) 
N

>  <2A6>  (677) 
N

>  <2B6>  (677) 
N

>  <2C8>  (677) 
N

>  <2C9>  (677) 
N

>  <2C19>  (677) 
N

>  <2D6>  (677) 
N

>  <2E1>  (677) 
N

>  <3A4>  (677) 
N

>  <Citation>  (677) 
Nucleic Acids Res. 2018. Jan 4;46(D1):D608-17. PMID:29140435
Nucleic Acids Res. 2018 Jan 4;46(D1):D1074-D1082. PMID:29126136
Nucleic Acids Res., 45:D380-388 (2017).  PMID:27924025
Nucleic Acids Res. 2016 Jan 4;44(D1):D1202-13. PMID:26400175

>  <ROMol>  (677) 
<rdkit.Chem.rdchem.Mol object at 0x7c2905dc62d0>

>  <Drug_like>  (677) 
True

$$$$
(+)-(R)-Dihydrodaidzein
     RDKit          2D

 19 21  0  0  0  0  0  0  0  0999 V2000
    0.9719    2.4022    0.0000 O   0  0  0  0  0  0  0  0  0  0  0  0
    2.2719    1.6522    0.0000 C   0  0  0  0  0  0  0  0  0  0  0  0
    2.2719    0.1522    0.0000 C   0  0  0  0  0  0  0  0  0  0  0  0
    0.9719   -0.5978    0.0000 C   0  0  0  0  0  0  0  0  0  0  0  0
    0.9719   -2.0978    0.0000 O   0  0  0  0  0  0  0  0  0  0  0  0
   -0.3281    0.1522    0.0000 C   0  0  0  0  0  0  0  0  0  0  0  0
   -0.3281    1.6522    0.0000 C   0  0  0  0  0  0  0  0  0  0  0  0
   -1.6281    2.4022    0.0000 C   0  0  0  0  0  0  0  0  0  0  0  0
   -2.9281    1.6522    0.0000 C   0  0  0  0  0  0  0  0  0  0  0  0
   -4.2271    2.4024    0.0000 O   0  0  0  0  0  0  0  0  0  0  0  0
   -2.9281    0.1522    0.0000 C   0  0  0  0  0  0  0  0  0  0  0  0
   -1.6281   -0.5978    0.0000 C   0  0  0  0  0  0  0  0  0  0  0  0
    3.1127   -2.1596    0.0000 C   0  0  0  0  0  0  0  0  0  0  0  0
    4.5912   -2.4132    0.0000 C   0  0  0  0  0  0  0  0  0  0  0  0
    5.1157   -3.7917    0.0000 C   0  0  0  0  0  0  0  0  0  0  0  0
    4.1483   -4.9955    0.0000 C   0  0  0  0  0  0  0  0  0  0  0  0
    4.6796   -6.3982    0.0000 O   0  0  0  0  0  0  0  0  0  0  0  0
    2.6699   -4.7420    0.0000 C   0  0  0  0  0  0  0  0  0  0  0  0
    2.1589   -3.2846    0.0000 C   0  0  0  0  0  0  0  0  0  0  0  0
  1  2  1  0
  2  3  1  0
  3  4  1  0
  4  5  2  0
  4  6  1  0
  6  7  2  0
  1  7  1  0
  7  8  1  0
  8  9  2  0
  9 10  1  0
  9 11  1  0
 11 12  2  0
  6 12  1  0
  3 13  1  0
 13 14  2  0
 14 15  1  0
 15 16  2  0
 16 17  1  0
 16 18  1  0
 18 19  2  0
 13 19  1  0
M  END
>  <cdk:Title>  (678) 
(+)-(R)-Dihydrodaidzein

>  <1A2>  (678) 
N

>  <2A6>  (678) 
N

>  <2B6>  (678) 
N

>  <2C8>  (678) 
N

>  <2C9>  (678) 
N

>  <2C19>  (678) 
N

>  <2D6>  (678) 
N

>  <2E1>  (678) 
N

>  <3A4>  (678) 
N

>  <Citation>  (678) 
Nucleic Acids Res. 2018. Jan 4;46(D1):D608-17. PMID:29140435
Nucleic Acids Res. 2018 Jan 4;46(D1):D1074-D1082. PMID:29126136
Nucleic Acids Res., 45:D380-388 (2017).  PMID:27924025
Nucleic Acids Res. 2016 Jan 4;44(D1):D1202-13. PMID:26400175

>  <ROMol>  (678) 
<rdkit.Chem.rdchem.Mol object at 0x7c2905dc63b0>

>  <Drug_like>  (678) 
True

$$$$
7-Hydroxyterpineol 8-glucoside
     RDKit          2D

 23 24  0  0  0  0  0  0  0  0999 V2000
    7.8274   -1.3666    0.0000 C   0  0  0  0  0  0  0  0  0  0  0  0
    8.5774   -2.6066    0.0000 C   0  0  0  0  0  0  0  0  0  0  0  0
    7.8874   -3.9366    0.0000 C   0  0  0  0  0  0  0  0  0  0  0  0
    6.4074   -3.9266    0.0000 C   0  0  0  0  0  0  0  0  0  0  0  0
    5.6574   -2.6866    0.0000 C   0  0  0  0  0  0  0  0  0  0  0  0
    6.3474   -1.3566    0.0000 C   0  0  0  0  0  0  0  0  0  0  0  0
    3.3372   -0.8810    0.0000 C   0  0  0  0  0  0  0  0  0  0  0  0
    1.9619   -3.4795    0.0000 C   0  0  0  0  0  0  0  0  0  0  0  0
    1.9097   -0.4202    0.0000 C   0  0  0  0  0  0  0  0  0  0  0  0
    3.6090    1.0803    0.0000 O   0  0  0  0  0  0  0  0  0  0  0  0
    1.2888    2.8859    0.0000 C   0  0  0  0  0  0  0  0  0  0  0  0
    2.3919    3.8876    0.0000 C   0  0  0  0  0  0  0  0  0  0  0  0
    2.0672    5.3757    0.0000 C   0  0  0  0  0  0  0  0  0  0  0  0
    0.6306    5.8272    0.0000 C   0  0  0  0  0  0  0  0  0  0  0  0
   -0.4725    4.8256    0.0000 C   0  0  0  0  0  0  0  0  0  0  0  0
   -0.1538    3.3590    0.0000 O   0  0  0  0  0  0  0  0  0  0  0  0
   -1.8607    4.2575    0.0000 C   0  0  0  0  0  0  0  0  0  0  0  0
   -3.0468    5.1758    0.0000 O   0  0  0  0  0  0  0  0  0  0  0  0
   -0.5569    6.7436    0.0000 O   0  0  0  0  0  0  0  0  0  0  0  0
    2.2637    6.8628    0.0000 O   0  0  0  0  0  0  0  0  0  0  0  0
    3.7799    4.4564    0.0000 O   0  0  0  0  0  0  0  0  0  0  0  0
   10.0766   -2.5576    0.0000 C   0  0  0  0  0  0  0  0  0  0  0  0
   10.8686   -3.8314    0.0000 O   0  0  0  0  0  0  0  0  0  0  0  0
  1  2  2  0
  2  3  1  0
  3  4  1  0
  4  5  1  0
  5  6  1  0
  1  6  1  0
  5  7  1  0
  7  8  1  0
  7  9  1  0
  7 10  1  0
 10 11  1  0
 11 12  1  0
 12 13  1  0
 13 14  1  0
 14 15  1  0
 15 16  1  0
 11 16  1  0
 15 17  1  0
 17 18  1  0
 14 19  1  0
 13 20  1  0
 12 21  1  0
  2 22  1  0
 22 23  1  0
M  END
>  <cdk:Title>  (679) 
7-Hydroxyterpineol 8-glucoside

>  <1A2>  (679) 
N

>  <2A6>  (679) 
N

>  <2B6>  (679) 
N

>  <2C8>  (679) 
N

>  <2C9>  (679) 
N

>  <2C19>  (679) 
N

>  <2D6>  (679) 
N

>  <2E1>  (679) 
N

>  <3A4>  (679) 
N

>  <Citation>  (679) 
Nucleic Acids Res. 2018. Jan 4;46(D1):D608-17. PMID:29140435
Nucleic Acids Res. 2018 Jan 4;46(D1):D1074-D1082. PMID:29126136
Nucleic Acids Res., 45:D380-388 (2017).  PMID:27924025
Nucleic Acids Res. 2016 Jan 4;44(D1):D1202-13. PMID:26400175

>  <ROMol>  (679) 
<rdkit.Chem.rdchem.Mol object at 0x7c2905dc6420>

>  <Drug_like>  (679) 
True

$$$$
74715-48-3
     RDKit          2D

 33 37  0  0  0  0  0  0  0  0999 V2000
   -4.9524    3.0295    0.0000 C   0  0  0  0  0  0  0  0  0  0  0  0
   -6.2524    2.2795    0.0000 C   0  0  0  0  0  0  0  0  0  0  0  0
   -6.2524    0.7795    0.0000 C   0  0  0  0  0  0  0  0  0  0  0  0
   -4.9524    0.0295    0.0000 C   0  0  0  0  0  0  0  0  0  0  0  0
   -3.6524    0.7795    0.0000 C   0  0  0  0  0  0  0  0  0  0  0  0
   -2.3524    0.0295    0.0000 C   0  0  0  0  0  0  0  0  0  0  0  0
   -1.0624    0.7795    0.0000 C   0  0  0  0  0  0  0  0  0  0  0  0
   -1.0624    2.2795    0.0000 C   0  0  0  0  0  0  0  0  0  0  0  0
   -2.3524    3.0295    0.0000 C   0  0  0  0  0  0  0  0  0  0  0  0
   -3.6524    2.2795    0.0000 C   0  0  0  0  0  0  0  0  0  0  0  0
   -3.3086    4.2294    0.0000 C   0  0  0  0  0  0  0  0  0  0  0  0
   -2.3524    4.5295    0.0000 C   0  0  0  0  0  0  0  0  0  0  0  0
   -1.0624    5.2795    0.0000 C   0  0  0  0  0  0  0  0  0  0  0  0
    0.2376    4.5295    0.0000 C   0  0  0  0  0  0  0  0  0  0  0  0
    0.2376    3.0295    0.0000 C   0  0  0  0  0  0  0  0  0  0  0  0
    1.5376    2.2795    0.0000 C   0  0  0  0  0  0  0  0  0  0  0  0
    2.8376    3.0295    0.0000 C   0  0  0  0  0  0  0  0  0  0  0  0
    3.8426    0.2666    0.0000 O   0  0  0  0  0  0  0  0  0  0  0  0
    2.8376    4.5295    0.0000 C   0  0  0  0  0  0  0  0  0  0  0  0
    1.5376    5.2795    0.0000 C   0  0  0  0  0  0  0  0  0  0  0  0
    1.5376    6.7795    0.0000 C   0  0  0  0  0  0  0  0  0  0  0  0
    2.8376    7.5295    0.0000 C   0  0  0  0  0  0  0  0  0  0  0  0
    4.1376    6.7795    0.0000 C   0  0  0  0  0  0  0  0  0  0  0  0
    4.1376    5.2795    0.0000 C   0  0  0  0  0  0  0  0  0  0  0  0
    2.8376    9.9895    0.0000 C   0  0  0  0  0  0  0  0  0  0  0  0
    1.0249    8.1891    0.0000 C   0  0  0  0  0  0  0  0  0  0  0  0
    5.3835    3.0591    0.0000 C   0  0  0  0  0  0  0  0  0  0  0  0
    6.6827    3.8089    0.0000 O   0  0  0  0  0  0  0  0  0  0  0  0
   -0.2729    0.1341    0.0000 C   0  0  0  0  0  0  0  0  0  0  0  0
    1.4835    0.8091    0.0000 C   0  0  0  0  0  0  0  0  0  0  0  0
   -6.5334   -1.8552    0.0000 C   0  0  0  0  0  0  0  0  0  0  0  0
   -3.0628   -2.2229    0.0000 C   0  0  0  0  0  0  0  0  0  0  0  0
   -7.7296    1.0398    0.0000 O   0  0  0  0  0  0  0  0  0  0  0  0
  1  2  1  0
  2  3  1  0
  3  4  1  0
  4  5  1  0
  5  6  1  0
  6  7  1  0
  7  8  1  0
  8  9  1  0
  9 10  1  0
  1 10  1  0
  5 10  1  0
 10 11  1  1
  9 12  1  0
 12 13  1  0
 13 14  1  0
 14 15  1  0
  8 15  1  0
 15 16  1  0
 16 17  1  0
 17 18  1  0
 17 19  1  0
 19 20  1  0
 14 20  1  0
 20 21  1  0
 21 22  1  0
 22 23  1  0
 23 24  1  0
 19 24  1  0
 22 25  2  0
 21 26  1  0
 19 27  1  1
 27 28  1  0
 15 29  1  6
  8 30  1  1
  4 31  1  0
  4 32  1  0
  3 33  1  0
M  END
>  <cdk:Title>  (680) 
74715-48-3

>  <1A2>  (680) 
N

>  <2A6>  (680) 
N

>  <2B6>  (680) 
N

>  <2C8>  (680) 
N

>  <2C9>  (680) 
N

>  <2C19>  (680) 
N

>  <2D6>  (680) 
N

>  <2E1>  (680) 
N

>  <3A4>  (680) 
N

>  <Citation>  (680) 
Nucleic Acids Res. 2018. Jan 4;46(D1):D608-17. PMID:29140435
Nucleic Acids Res. 2018 Jan 4;46(D1):D1074-D1082. PMID:29126136
Nucleic Acids Res., 45:D380-388 (2017).  PMID:27924025
Nucleic Acids Res. 2016 Jan 4;44(D1):D1202-13. PMID:26400175

>  <ROMol>  (680) 
<rdkit.Chem.rdchem.Mol object at 0x7c2905dc6490>

>  <Drug_like>  (680) 
True

$$$$
Pregnane
     RDKit          2D

 21 24  0  0  0  0  0  0  0  0999 V2000
    8.0469   -2.3526    0.0000 C   0  0  0  0  0  0  0  0  0  0  0  0
    6.7487   -1.6011    0.0000 C   0  0  0  0  0  0  0  0  0  0  0  0
    4.2009   -3.0682    0.0000 C   0  0  0  0  0  0  0  0  0  0  0  0
    5.0809   -4.2882    0.0000 C   0  0  0  0  0  0  0  0  0  0  0  0
    4.2009   -5.4982    0.0000 C   0  0  0  0  0  0  0  0  0  0  0  0
    2.7709   -5.0382    0.0000 C   0  0  0  0  0  0  0  0  0  0  0  0
    1.4709   -5.7882    0.0000 C   0  0  0  0  0  0  0  0  0  0  0  0
    1.4709   -7.2882    0.0000 C   0  0  0  0  0  0  0  0  0  0  0  0
    0.1709   -8.0382    0.0000 C   0  0  0  0  0  0  0  0  0  0  0  0
   -1.1291   -7.2882    0.0000 C   0  0  0  0  0  0  0  0  0  0  0  0
   -2.4291   -8.0382    0.0000 C   0  0  0  0  0  0  0  0  0  0  0  0
   -3.7291   -7.2882    0.0000 C   0  0  0  0  0  0  0  0  0  0  0  0
   -3.7291   -5.7882    0.0000 C   0  0  0  0  0  0  0  0  0  0  0  0
   -2.4291   -5.0382    0.0000 C   0  0  0  0  0  0  0  0  0  0  0  0
   -1.1291   -5.7882    0.0000 C   0  0  0  0  0  0  0  0  0  0  0  0
   -0.7853   -3.8382    0.0000 C   0  0  0  0  0  0  0  0  0  0  0  0
    0.1709   -5.0382    0.0000 C   0  0  0  0  0  0  0  0  0  0  0  0
    0.1709   -3.5382    0.0000 C   0  0  0  0  0  0  0  0  0  0  0  0
    1.4709   -2.7882    0.0000 C   0  0  0  0  0  0  0  0  0  0  0  0
    2.7709   -3.5382    0.0000 C   0  0  0  0  0  0  0  0  0  0  0  0
    3.0728   -0.6137    0.0000 C   0  0  0  0  0  0  0  0  0  0  0  0
  1  2  1  0
  2  3  1  0
  3  4  1  0
  4  5  1  0
  5  6  1  0
  6  7  1  0
  7  8  1  0
  8  9  1  0
  9 10  1  0
 10 11  1  0
 11 12  1  0
 12 13  1  0
 13 14  1  0
 14 15  1  0
 10 15  1  0
 15 16  1  6
 15 17  1  0
  7 17  1  0
 17 18  1  0
 18 19  1  0
 19 20  1  0
  3 20  1  0
  6 20  1  0
 20 21  1  6
M  END
>  <cdk:Title>  (681) 
Pregnane

>  <1A2>  (681) 
N

>  <2A6>  (681) 
N

>  <2B6>  (681) 
N

>  <2C8>  (681) 
N

>  <2C9>  (681) 
N

>  <2C19>  (681) 
N

>  <2D6>  (681) 
N

>  <2E1>  (681) 
N

>  <3A4>  (681) 
N

>  <Citation>  (681) 
Nucleic Acids Res. 2018. Jan 4;46(D1):D608-17. PMID:29140435
Nucleic Acids Res. 2018 Jan 4;46(D1):D1074-D1082. PMID:29126136
Nucleic Acids Res., 45:D380-388 (2017).  PMID:27924025
Nucleic Acids Res. 2016 Jan 4;44(D1):D1202-13. PMID:26400175

>  <ROMol>  (681) 
<rdkit.Chem.rdchem.Mol object at 0x7c2905dc6500>

>  <Drug_like>  (681) 
True

$$$$
(-)-trans-Pinocarveol
     RDKit          2D

 11 12  0  0  0  0  0  0  0  0999 V2000
    0.9438    1.0555    0.0000 C   0  0  0  0  0  0  0  0  0  0  0  0
   -0.2562   -0.2445    0.0000 C   0  0  0  0  0  0  0  0  0  0  0  0
   -2.0233    1.4669    0.0000 C   0  0  0  0  0  0  0  0  0  0  0  0
   -2.0095   -1.9700    0.0000 C   0  0  0  0  0  0  0  0  0  0  0  0
    0.9538   -1.5345    0.0000 C   0  0  0  0  0  0  0  0  0  0  0  0
    2.4538   -1.5245    0.0000 C   0  0  0  0  0  0  0  0  0  0  0  0
    3.1938   -0.2145    0.0000 C   0  0  0  0  0  0  0  0  0  0  0  0
    2.4338    1.0755    0.0000 C   0  0  0  0  0  0  0  0  0  0  0  0
    3.1693    2.3828    0.0000 C   0  0  0  0  0  0  0  0  0  0  0  0
    4.3517   -1.1681    0.0000 O   0  0  0  0  0  0  0  0  0  0  0  0
    0.1938   -0.2445    0.0000 C   0  0  0  0  0  0  0  0  0  0  0  0
  1  2  1  0
  2  3  1  0
  2  4  1  0
  2  5  1  0
  5  6  1  0
  6  7  1  0
  7  8  1  0
  1  8  1  0
  8  9  2  0
  7 10  1  0
  5 11  1  0
  1 11  1  0
M  END
>  <cdk:Title>  (682) 
(-)-trans-Pinocarveol

>  <1A2>  (682) 
N

>  <2A6>  (682) 
N

>  <2B6>  (682) 
N

>  <2C8>  (682) 
N

>  <2C9>  (682) 
N

>  <2C19>  (682) 
N

>  <2D6>  (682) 
N

>  <2E1>  (682) 
N

>  <3A4>  (682) 
N

>  <Citation>  (682) 
Nucleic Acids Res. 2018. Jan 4;46(D1):D608-17. PMID:29140435
Nucleic Acids Res. 2018 Jan 4;46(D1):D1074-D1082. PMID:29126136
Nucleic Acids Res., 45:D380-388 (2017).  PMID:27924025
Nucleic Acids Res. 2016 Jan 4;44(D1):D1202-13. PMID:26400175

>  <ROMol>  (682) 
<rdkit.Chem.rdchem.Mol object at 0x7c2905dc6570>

>  <Drug_like>  (682) 
True

$$$$
CHEMBL3401902
     RDKit          2D

 38 42  0  0  0  0  0  0  0  0999 V2000
   -5.2457    0.2209    0.0000 C   0  0  0  0  0  0  0  0  0  0  0  0
   -6.5457   -0.5291    0.0000 C   0  0  0  0  0  0  0  0  0  0  0  0
   -6.5457   -2.0291    0.0000 C   0  0  0  0  0  0  0  0  0  0  0  0
   -5.2457   -2.7791    0.0000 C   0  0  0  0  0  0  0  0  0  0  0  0
   -3.9457   -2.0291    0.0000 C   0  0  0  0  0  0  0  0  0  0  0  0
   -2.6457   -2.7791    0.0000 C   0  0  0  0  0  0  0  0  0  0  0  0
   -1.3557   -2.0291    0.0000 C   0  0  0  0  0  0  0  0  0  0  0  0
   -1.3557   -0.5291    0.0000 C   0  0  0  0  0  0  0  0  0  0  0  0
   -2.6457    0.2209    0.0000 C   0  0  0  0  0  0  0  0  0  0  0  0
   -3.9457   -0.5291    0.0000 C   0  0  0  0  0  0  0  0  0  0  0  0
   -3.4352    2.3662    0.0000 C   0  0  0  0  0  0  0  0  0  0  0  0
   -2.6457    1.7209    0.0000 C   0  0  0  0  0  0  0  0  0  0  0  0
   -1.3557    2.4709    0.0000 C   0  0  0  0  0  0  0  0  0  0  0  0
   -0.0557    1.7209    0.0000 C   0  0  0  0  0  0  0  0  0  0  0  0
   -0.0557    0.2209    0.0000 C   0  0  0  0  0  0  0  0  0  0  0  0
    1.2443   -0.5291    0.0000 C   0  0  0  0  0  0  0  0  0  0  0  0
    2.5443    0.2209    0.0000 C   0  0  0  0  0  0  0  0  0  0  0  0
    2.5443    1.7209    0.0000 C   0  0  0  0  0  0  0  0  0  0  0  0
    1.2443    2.4709    0.0000 C   0  0  0  0  0  0  0  0  0  0  0  0
    1.2443    3.9709    0.0000 C   0  0  0  0  0  0  0  0  0  0  0  0
    2.5443    4.7209    0.0000 C   0  0  0  0  0  0  0  0  0  0  0  0
    3.8443    3.9709    0.0000 C   0  0  0  0  0  0  0  0  0  0  0  0
    3.8443    2.4709    0.0000 C   0  0  0  0  0  0  0  0  0  0  0  0
    4.1254    6.6055    0.0000 C   0  0  0  0  0  0  0  0  0  0  0  0
    0.2394    6.7338    0.0000 C   0  0  0  0  0  0  0  0  0  0  0  0
    5.0902    0.2504    0.0000 C   0  0  0  0  0  0  0  0  0  0  0  0
   -0.5662   -2.6745    0.0000 C   0  0  0  0  0  0  0  0  0  0  0  0
   -5.1940    3.1870    0.0000 O   0  0  0  0  0  0  0  0  0  0  0  0
    1.1902   -1.9996    0.0000 C   0  0  0  0  0  0  0  0  0  0  0  0
   -6.2097   -3.9283    0.0000 C   0  0  0  0  0  0  0  0  0  0  0  0
   -7.6870   -3.6680    0.0000 O   0  0  0  0  0  0  0  0  0  0  0  0
   -5.6966   -5.3378    0.0000 O   0  0  0  0  0  0  0  0  0  0  0  0
   -6.6606   -6.4870    0.0000 C   0  0  0  0  0  0  0  0  0  0  0  0
   -3.6646   -4.6638    0.0000 C   0  0  0  0  0  0  0  0  0  0  0  0
   -8.0229   -1.7688    0.0000 O   0  0  0  0  0  0  0  0  0  0  0  0
   -8.9870   -2.9180    0.0000 C   0  0  0  0  0  0  0  0  0  0  0  0
  -10.4642   -2.6577    0.0000 C   0  0  0  0  0  0  0  0  0  0  0  0
   -8.4738   -4.3275    0.0000 O   0  0  0  0  0  0  0  0  0  0  0  0
  1  2  1  0
  2  3  1  0
  3  4  1  0
  4  5  1  0
  5  6  1  0
  6  7  1  0
  7  8  1  0
  8  9  1  0
  9 10  1  0
  1 10  1  0
  5 10  1  0
 10 11  1  1
  9 12  1  0
 12 13  1  0
 13 14  2  0
 14 15  1  0
  8 15  1  0
 15 16  1  0
 16 17  1  0
 17 18  1  0
 18 19  1  0
 14 19  1  0
 19 20  1  0
 20 21  1  0
 21 22  1  0
 22 23  1  0
 18 23  1  0
 21 24  1  0
 20 25  1  0
 18 26  1  1
 15 27  1  6
 12 28  2  0
  8 29  1  1
  4 30  1  0
 30 31  2  0
 30 32  1  0
 32 33  1  0
  4 34  1  6
  3 35  1  0
 35 36  1  0
 36 37  1  0
 36 38  2  0
M  END
>  <cdk:Title>  (683) 
CHEMBL3401902

>  <1A2>  (683) 
N

>  <2A6>  (683) 
N

>  <2B6>  (683) 
N

>  <2C8>  (683) 
N

>  <2C9>  (683) 
N

>  <2C19>  (683) 
N

>  <2D6>  (683) 
N

>  <2E1>  (683) 
N

>  <3A4>  (683) 
N

>  <Citation>  (683) 
Nucleic Acids Res. 2018. Jan 4;46(D1):D608-17. PMID:29140435
Nucleic Acids Res. 2018 Jan 4;46(D1):D1074-D1082. PMID:29126136
Nucleic Acids Res., 45:D380-388 (2017).  PMID:27924025
Nucleic Acids Res. 2016 Jan 4;44(D1):D1202-13. PMID:26400175

>  <ROMol>  (683) 
<rdkit.Chem.rdchem.Mol object at 0x7c2905dc65e0>

>  <Drug_like>  (683) 
True

$$$$
(1S_4R)-Fenchone
     RDKit          2D

 11 12  0  0  0  0  0  0  0  0999 V2000
    3.6023   -1.6170    0.0000 C   0  0  0  0  0  0  0  0  0  0  0  0
    3.0895   -0.2073    0.0000 C   0  0  0  0  0  0  0  0  0  0  0  0
    4.5668    0.0530    0.0000 C   0  0  0  0  0  0  0  0  0  0  0  0
    1.7895   -0.9573    0.0000 C   0  0  0  0  0  0  0  0  0  0  0  0
    0.4895   -0.2073    0.0000 C   0  0  0  0  0  0  0  0  0  0  0  0
    0.4895    1.2927    0.0000 C   0  0  0  0  0  0  0  0  0  0  0  0
    1.7895    2.0427    0.0000 C   0  0  0  0  0  0  0  0  0  0  0  0
    1.7895    3.5427    0.0000 C   0  0  0  0  0  0  0  0  0  0  0  0
    1.0395    0.5527    0.0000 C   0  0  0  0  0  0  0  0  0  0  0  0
    3.0895    1.2927    0.0000 C   0  0  0  0  0  0  0  0  0  0  0  0
    4.8041    2.2830    0.0000 O   0  0  0  0  0  0  0  0  0  0  0  0
  1  2  1  0
  2  3  1  0
  2  4  1  0
  4  5  1  0
  5  6  1  0
  6  7  1  0
  7  8  1  1
  7  9  1  0
  4  9  1  0
  7 10  1  0
  2 10  1  0
 10 11  2  0
M  END
>  <cdk:Title>  (684) 
(1S_4R)-Fenchone

>  <1A2>  (684) 
N

>  <2A6>  (684) 
N

>  <2B6>  (684) 
N

>  <2C8>  (684) 
N

>  <2C9>  (684) 
N

>  <2C19>  (684) 
N

>  <2D6>  (684) 
N

>  <2E1>  (684) 
N

>  <3A4>  (684) 
N

>  <Citation>  (684) 
Nucleic Acids Res. 2018. Jan 4;46(D1):D608-17. PMID:29140435
Nucleic Acids Res. 2018 Jan 4;46(D1):D1074-D1082. PMID:29126136
Nucleic Acids Res., 45:D380-388 (2017).  PMID:27924025
Nucleic Acids Res. 2016 Jan 4;44(D1):D1202-13. PMID:26400175

>  <ROMol>  (684) 
<rdkit.Chem.rdchem.Mol object at 0x7c2905dc6650>

>  <Drug_like>  (684) 
True

$$$$
3b-Hydroxy-6b-(2_3-epoxy-2-methylbutanoyloxy)-7(11)-eremophilen-12_8b-olide
     RDKit          2D

 26 29  0  0  0  0  0  0  0  0999 V2000
    6.3887   -2.1004    0.0000 C   0  0  0  0  0  0  0  0  0  0  0  0
    6.4538   -0.6018    0.0000 C   0  0  0  0  0  0  0  0  0  0  0  0
    5.2742    0.3383    0.0000 C   0  0  0  0  0  0  0  0  0  0  0  0
    5.8000    1.7538    0.0000 C   0  0  0  0  0  0  0  0  0  0  0  0
    4.8349    2.9032    0.0000 C   0  0  0  0  0  0  0  0  0  0  0  0
    3.3696    2.6490    0.0000 C   0  0  0  0  0  0  0  0  0  0  0  0
    2.4046    3.7984    0.0000 C   0  0  0  0  0  0  0  0  0  0  0  0
    0.9264    3.5383    0.0000 C   0  0  0  0  0  0  0  0  0  0  0  0
    0.4134    2.1287    0.0000 C   0  0  0  0  0  0  0  0  0  0  0  0
    1.3785    0.9794    0.0000 C   0  0  0  0  0  0  0  0  0  0  0  0
   -1.1658   -0.4938    0.0000 C   0  0  0  0  0  0  0  0  0  0  0  0
    2.8472    1.2429    0.0000 C   0  0  0  0  0  0  0  0  0  0  0  0
    1.8417   -1.5198    0.0000 C   0  0  0  0  0  0  0  0  0  0  0  0
    3.8029    0.0969    0.0000 C   0  0  0  0  0  0  0  0  0  0  0  0
    1.2480   -1.3578    0.0000 O   0  0  0  0  0  0  0  0  0  0  0  0
    1.2304   -4.2977    0.0000 C   0  0  0  0  0  0  0  0  0  0  0  0
   -0.0514   -5.8068    0.0000 C   0  0  0  0  0  0  0  0  0  0  0  0
   -1.3507   -5.0572    0.0000 C   0  0  0  0  0  0  0  0  0  0  0  0
    0.8989   -6.9681    0.0000 C   0  0  0  0  0  0  0  0  0  0  0  0
    1.4253   -8.3727    0.0000 C   0  0  0  0  0  0  0  0  0  0  0  0
   -0.5687   -7.2579    0.0000 O   0  0  0  0  0  0  0  0  0  0  0  0
    2.7060   -4.5670    0.0000 O   0  0  0  0  0  0  0  0  0  0  0  0
   -0.8857    2.8786    0.0000 O   0  0  0  0  0  0  0  0  0  0  0  0
    7.3071    1.6842    0.0000 O   0  0  0  0  0  0  0  0  0  0  0  0
    7.7168    0.2368    0.0000 C   0  0  0  0  0  0  0  0  0  0  0  0
    9.1235   -0.2838    0.0000 O   0  0  0  0  0  0  0  0  0  0  0  0
  1  2  1  0
  2  3  2  0
  3  4  1  0
  4  5  1  0
  5  6  1  0
  6  7  1  0
  7  8  1  0
  8  9  1  0
  9 10  1  0
 10 11  1  0
 10 12  1  0
  6 12  1  0
 12 13  1  1
 12 14  1  0
  3 14  1  0
 14 15  1  0
 15 16  1  0
 17 16  1  0
 17 18  1  6
 17 19  1  0
 19 20  1  0
 19 21  1  0
 17 21  1  0
 16 22  2  0
  9 23  1  0
  4 24  1  0
 24 25  1  0
  2 25  1  0
 25 26  2  0
M  END
>  <cdk:Title>  (685) 
3b-Hydroxy-6b-(2_3-epoxy-2-methylbutanoyloxy)-7(11)-eremophilen-12_8b-olide

>  <1A2>  (685) 
N

>  <2A6>  (685) 
N

>  <2B6>  (685) 
N

>  <2C8>  (685) 
N

>  <2C9>  (685) 
N

>  <2C19>  (685) 
N

>  <2D6>  (685) 
N

>  <2E1>  (685) 
N

>  <3A4>  (685) 
N

>  <Citation>  (685) 
Nucleic Acids Res. 2018. Jan 4;46(D1):D608-17. PMID:29140435
Nucleic Acids Res. 2018 Jan 4;46(D1):D1074-D1082. PMID:29126136
Nucleic Acids Res., 45:D380-388 (2017).  PMID:27924025
Nucleic Acids Res. 2016 Jan 4;44(D1):D1202-13. PMID:26400175

>  <ROMol>  (685) 
<rdkit.Chem.rdchem.Mol object at 0x7c2905dc66c0>

>  <Drug_like>  (685) 
True

$$$$
(2S)-2-[(2R)-2_6-diaminohexanamido]-3-(4-hydroxyphenyl)propanoic acid
     RDKit          2D

 22 22  0  0  0  0  0  0  0  0999 V2000
    2.6068    6.5573    0.0000 N   0  0  0  0  0  0  0  0  0  0  0  0
    2.5994    5.0573    0.0000 C   0  0  0  0  0  0  0  0  0  0  0  0
    3.8948    4.3009    0.0000 O   0  0  0  0  0  0  0  0  0  0  0  0
    1.2967    4.3137    0.0000 C   0  0  0  0  0  0  0  0  0  0  0  0
    2.2552    3.1599    0.0000 N   0  0  0  0  0  0  0  0  0  0  0  0
   -0.4131    5.3121    0.0000 C   0  0  0  0  0  0  0  0  0  0  0  0
   -2.1327    4.3306    0.0000 C   0  0  0  0  0  0  0  0  0  0  0  0
   -3.8425    5.3290    0.0000 C   0  0  0  0  0  0  0  0  0  0  0  0
   -5.1452    4.5854    0.0000 C   0  0  0  0  0  0  0  0  0  0  0  0
   -6.4406    5.3418    0.0000 N   0  0  0  0  0  0  0  0  0  0  0  0
    3.9095    7.3009    0.0000 C   0  0  0  0  0  0  0  0  0  0  0  0
    5.2049    6.5445    0.0000 C   0  0  0  0  0  0  0  0  0  0  0  0
    6.5076    7.2881    0.0000 C   0  0  0  0  0  0  0  0  0  0  0  0
    7.7992    6.5253    0.0000 C   0  0  0  0  0  0  0  0  0  0  0  0
    9.0908    7.2375    0.0000 C   0  0  0  0  0  0  0  0  0  0  0  0
    9.1314    8.7813    0.0000 C   0  0  0  0  0  0  0  0  0  0  0  0
   10.4438    9.5077    0.0000 O   0  0  0  0  0  0  0  0  0  0  0  0
    7.8399    9.5441    0.0000 C   0  0  0  0  0  0  0  0  0  0  0  0
    6.5076    8.7630    0.0000 C   0  0  0  0  0  0  0  0  0  0  0  0
    2.9510    8.4547    0.0000 C   0  0  0  0  0  0  0  0  0  0  0  0
    3.4710    9.8617    0.0000 O   0  0  0  0  0  0  0  0  0  0  0  0
    1.4725    8.2015    0.0000 O   0  0  0  0  0  0  0  0  0  0  0  0
  1  2  1  0
  2  3  2  0
  2  4  1  0
  4  5  1  0
  4  6  1  0
  6  7  1  0
  7  8  1  0
  8  9  1  0
  9 10  1  0
  1 11  1  0
 11 12  1  0
 12 13  1  0
 13 14  2  0
 14 15  1  0
 15 16  2  0
 16 17  1  0
 16 18  1  0
 18 19  2  0
 13 19  1  0
 11 20  1  0
 20 21  1  0
 20 22  2  0
M  END
>  <cdk:Title>  (686) 
(2S)-2-[(2R)-2_6-diaminohexanamido]-3-(4-hydroxyphenyl)propanoic acid

>  <1A2>  (686) 
N

>  <2A6>  (686) 
N

>  <2B6>  (686) 
N

>  <2C8>  (686) 
N

>  <2C9>  (686) 
N

>  <2C19>  (686) 
N

>  <2D6>  (686) 
N

>  <2E1>  (686) 
N

>  <3A4>  (686) 
N

>  <Citation>  (686) 
Nucleic Acids Res. 2018. Jan 4;46(D1):D608-17. PMID:29140435
Nucleic Acids Res. 2018 Jan 4;46(D1):D1074-D1082. PMID:29126136
Nucleic Acids Res., 45:D380-388 (2017).  PMID:27924025
Nucleic Acids Res. 2016 Jan 4;44(D1):D1202-13. PMID:26400175

>  <ROMol>  (686) 
<rdkit.Chem.rdchem.Mol object at 0x7c2905dc6730>

>  <Drug_like>  (686) 
True

$$$$
UNII-8W199O5S7f
     RDKit          2D

  9  9  0  0  0  0  0  0  0  0999 V2000
   -1.2540   -1.1290    0.0000 N   0  0  0  0  0  0  0  0  0  0  0  0
   -2.5540   -0.3790    0.0000 C   0  0  0  0  0  0  0  0  0  0  0  0
   -3.8529   -1.1292    0.0000 O   0  0  0  0  0  0  0  0  0  0  0  0
   -2.5540    1.1210    0.0000 N   0  0  0  0  0  0  0  0  0  0  0  0
   -1.2540    1.8710    0.0000 C   0  0  0  0  0  0  0  0  0  0  0  0
   -1.2540    3.3710    0.0000 O   0  0  0  0  0  0  0  0  0  0  0  0
    0.0460    1.1210    0.0000 C   0  0  0  0  0  0  0  0  0  0  0  0
    2.9414    0.6108    0.0000 C   0  0  0  0  0  0  0  0  0  0  0  0
    0.0460   -0.3790    0.0000 C   0  0  0  0  0  0  0  0  0  0  0  0
  1  2  1  0
  2  3  2  0
  2  4  1  0
  4  5  1  0
  5  6  2  0
  5  7  1  0
  7  8  1  0
  7  9  1  0
  1  9  1  0
M  END
>  <cdk:Title>  (687) 
UNII-8W199O5S7f

>  <1A2>  (687) 
N

>  <2A6>  (687) 
N

>  <2B6>  (687) 
N

>  <2C8>  (687) 
N

>  <2C9>  (687) 
N

>  <2C19>  (687) 
N

>  <2D6>  (687) 
N

>  <2E1>  (687) 
N

>  <3A4>  (687) 
N

>  <Citation>  (687) 
Nucleic Acids Res. 2018. Jan 4;46(D1):D608-17. PMID:29140435
Nucleic Acids Res. 2018 Jan 4;46(D1):D1074-D1082. PMID:29126136
Nucleic Acids Res., 45:D380-388 (2017).  PMID:27924025
Nucleic Acids Res. 2016 Jan 4;44(D1):D1202-13. PMID:26400175

>  <ROMol>  (687) 
<rdkit.Chem.rdchem.Mol object at 0x7c2905dc67a0>

>  <Drug_like>  (687) 
True

$$$$
Caryophyllene Oxide
     RDKit          2D

 16 18  0  0  0  0  0  0  0  0999 V2000
   -2.0117    5.0979    0.0000 C   0  0  0  0  0  0  0  0  0  0  0  0
   -2.0117    3.5979    0.0000 C   0  0  0  0  0  0  0  0  0  0  0  0
   -3.4212    3.0849    0.0000 C   0  0  0  0  0  0  0  0  0  0  0  0
   -4.1712    1.7859    0.0000 C   0  0  0  0  0  0  0  0  0  0  0  0
   -3.9108    0.3087    0.0000 C   0  0  0  0  0  0  0  0  0  0  0  0
   -2.7617   -0.6555    0.0000 C   0  0  0  0  0  0  0  0  0  0  0  0
   -2.5012   -2.1327    0.0000 C   0  0  0  0  0  0  0  0  0  0  0  0
   -1.2617   -0.6555    0.0000 C   0  0  0  0  0  0  0  0  0  0  0  0
   -0.1126    0.3087    0.0000 C   0  0  0  0  0  0  0  0  0  0  0  0
    0.1478    1.7859    0.0000 C   0  0  0  0  0  0  0  0  0  0  0  0
   -0.6022    3.0849    0.0000 C   0  0  0  0  0  0  0  0  0  0  0  0
    0.6969    3.8349    0.0000 C   0  0  0  0  0  0  0  0  0  0  0  0
    1.4469    2.5359    0.0000 C   0  0  0  0  0  0  0  0  0  0  0  0
    2.9169   -0.0102    0.0000 C   0  0  0  0  0  0  0  0  0  0  0  0
    2.7459    3.2859    0.0000 C   0  0  0  0  0  0  0  0  0  0  0  0
   -4.1712   -1.1686    0.0000 O   0  0  0  0  0  0  0  0  0  0  0  0
  1  2  2  0
  2  3  1  0
  3  4  1  0
  4  5  1  0
  5  6  1  0
  6  7  1  6
  6  8  1  0
  8  9  1  0
  9 10  1  0
 10 11  1  0
  2 11  1  0
 11 12  1  0
 12 13  1  0
 10 13  1  0
 13 14  1  0
 13 15  1  0
  6 16  1  0
  5 16  1  0
M  END
>  <cdk:Title>  (688) 
Caryophyllene Oxide

>  <1A2>  (688) 
N

>  <2A6>  (688) 
N

>  <2B6>  (688) 
N

>  <2C8>  (688) 
N

>  <2C9>  (688) 
N

>  <2C19>  (688) 
N

>  <2D6>  (688) 
N

>  <2E1>  (688) 
N

>  <3A4>  (688) 
N

>  <Citation>  (688) 
Nucleic Acids Res. 2018. Jan 4;46(D1):D608-17. PMID:29140435
Nucleic Acids Res. 2018 Jan 4;46(D1):D1074-D1082. PMID:29126136
Nucleic Acids Res., 45:D380-388 (2017).  PMID:27924025
Nucleic Acids Res. 2016 Jan 4;44(D1):D1202-13. PMID:26400175

>  <ROMol>  (688) 
<rdkit.Chem.rdchem.Mol object at 0x7c2905dc6810>

>  <Drug_like>  (688) 
True

$$$$
O-Desmethylverapamil
     RDKit          2D

 32 33  0  0  0  0  0  0  0  0999 V2000
    5.7848    5.4918    0.0000 O   0  0  0  0  0  0  0  0  0  0  0  0
    4.3076    5.7525    0.0000 C   0  0  0  0  0  0  0  0  0  0  0  0
    3.7946    7.1620    0.0000 C   0  0  0  0  0  0  0  0  0  0  0  0
    2.3165    7.4222    0.0000 C   0  0  0  0  0  0  0  0  0  0  0  0
    1.3109   10.1849    0.0000 C   0  0  0  0  0  0  0  0  0  0  0  0
    1.3109   12.6449    0.0000 C   0  0  0  0  0  0  0  0  0  0  0  0
    2.6100   13.3949    0.0000 C   0  0  0  0  0  0  0  0  0  0  0  0
    0.7979   14.0544    0.0000 C   0  0  0  0  0  0  0  0  0  0  0  0
   -1.5844    9.6744    0.0000 C   0  0  0  0  0  0  0  0  0  0  0  0
   -2.2616    7.8138    0.0000 C   0  0  0  0  0  0  0  0  0  0  0  0
   -5.1569    7.3032    0.0000 C   0  0  0  0  0  0  0  0  0  0  0  0
   -6.4296    8.8200    0.0000 N   0  0  0  0  0  0  0  0  0  0  0  0
   -8.3796    8.4762    0.0000 C   0  0  0  0  0  0  0  0  0  0  0  0
   -9.3437    9.6252    0.0000 C   0  0  0  0  0  0  0  0  0  0  0  0
  -10.8210    9.3648    0.0000 C   0  0  0  0  0  0  0  0  0  0  0  0
  -11.7853   10.5148    0.0000 C   0  0  0  0  0  0  0  0  0  0  0  0
  -13.2625   10.2543    0.0000 C   0  0  0  0  0  0  0  0  0  0  0  0
  -14.2269   11.4032    0.0000 O   0  0  0  0  0  0  0  0  0  0  0  0
  -13.7754    8.8438    0.0000 C   0  0  0  0  0  0  0  0  0  0  0  0
  -15.2526    8.5834    0.0000 O   0  0  0  0  0  0  0  0  0  0  0  0
  -16.2168    9.7324    0.0000 C   0  0  0  0  0  0  0  0  0  0  0  0
  -12.8110    7.6938    0.0000 C   0  0  0  0  0  0  0  0  0  0  0  0
  -11.3338    7.9543    0.0000 C   0  0  0  0  0  0  0  0  0  0  0  0
   -5.9166   10.2295    0.0000 C   0  0  0  0  0  0  0  0  0  0  0  0
    2.7882   10.4453    0.0000 C   0  0  0  0  0  0  0  0  0  0  0  0
    4.2654   10.7058    0.0000 N   0  0  0  0  0  0  0  0  0  0  0  0
    1.3514    6.2728    0.0000 C   0  0  0  0  0  0  0  0  0  0  0  0
    1.8644    4.8632    0.0000 C   0  0  0  0  0  0  0  0  0  0  0  0
    3.3425    4.6031    0.0000 C   0  0  0  0  0  0  0  0  0  0  0  0
    3.8556    3.1936    0.0000 O   0  0  0  0  0  0  0  0  0  0  0  0
    5.3328    2.9331    0.0000 C   0  0  0  0  0  0  0  0  0  0  0  0
    6.7492    6.6407    0.0000 C   0  0  0  0  0  0  0  0  0  0  0  0
  1  2  1  0
  2  3  2  0
  3  4  1  0
  4  5  1  0
  5  6  1  0
  6  7  1  0
  6  8  1  0
  5  9  1  1
  9 10  1  0
 10 11  1  0
 11 12  1  0
 12 13  1  0
 13 14  1  0
 14 15  1  0
 15 16  2  0
 16 17  1  0
 17 18  1  0
 17 19  2  0
 19 20  1  0
 20 21  1  0
 19 22  1  0
 22 23  2  0
 15 23  1  0
 12 24  1  0
  5 25  1  0
 25 26  3  0
  4 27  2  0
 27 28  1  0
 28 29  2  0
  2 29  1  0
 29 30  1  0
 30 31  1  0
  1 32  1  0
M  END
>  <cdk:Title>  (689) 
O-Desmethylverapamil

>  <1A2>  (689) 
N

>  <2A6>  (689) 
N

>  <2B6>  (689) 
N

>  <2C8>  (689) 
N

>  <2C9>  (689) 
N

>  <2C19>  (689) 
N

>  <2D6>  (689) 
N

>  <2E1>  (689) 
N

>  <3A4>  (689) 
N

>  <Citation>  (689) 
Nucleic Acids Res. 2018. Jan 4;46(D1):D608-17. PMID:29140435
Nucleic Acids Res. 2018 Jan 4;46(D1):D1074-D1082. PMID:29126136
Nucleic Acids Res., 45:D380-388 (2017).  PMID:27924025
Nucleic Acids Res. 2016 Jan 4;44(D1):D1202-13. PMID:26400175

>  <ROMol>  (689) 
<rdkit.Chem.rdchem.Mol object at 0x7c2905dc6880>

>  <Drug_like>  (689) 
True

$$$$
2-Amino-5-phenylpyridine
     RDKit          2D

 13 14  0  0  0  0  0  0  0  0999 V2000
   -4.8755    2.1969    0.0000 N   0  0  0  0  0  0  0  0  0  0  0  0
   -3.3755    2.1969    0.0000 C   0  0  0  0  0  0  0  0  0  0  0  0
   -2.6253    3.4958    0.0000 C   0  0  0  0  0  0  0  0  0  0  0  0
   -1.1244    3.4951    0.0000 C   0  0  0  0  0  0  0  0  0  0  0  0
   -0.3738    2.1955    0.0000 C   0  0  0  0  0  0  0  0  0  0  0  0
   -1.1240    0.8966    0.0000 C   0  0  0  0  0  0  0  0  0  0  0  0
   -2.6248    0.8973    0.0000 N   0  0  0  0  0  0  0  0  0  0  0  0
    1.1262    2.1955    0.0000 C   0  0  0  0  0  0  0  0  0  0  0  0
    1.8762    3.4955    0.0000 C   0  0  0  0  0  0  0  0  0  0  0  0
    3.3762    3.4955    0.0000 C   0  0  0  0  0  0  0  0  0  0  0  0
    4.1262    2.1955    0.0000 C   0  0  0  0  0  0  0  0  0  0  0  0
    3.3762    0.8955    0.0000 C   0  0  0  0  0  0  0  0  0  0  0  0
    1.8762    0.8955    0.0000 C   0  0  0  0  0  0  0  0  0  0  0  0
  1  2  1  0
  2  3  2  0
  3  4  1  0
  4  5  2  0
  5  6  1  0
  6  7  2  0
  2  7  1  0
  5  8  1  0
  8  9  2  0
  9 10  1  0
 10 11  2  0
 11 12  1  0
 12 13  2  0
  8 13  1  0
M  END
>  <cdk:Title>  (690) 
2-Amino-5-phenylpyridine

>  <1A2>  (690) 
N

>  <2A6>  (690) 
N

>  <2B6>  (690) 
N

>  <2C8>  (690) 
N

>  <2C9>  (690) 
N

>  <2C19>  (690) 
N

>  <2D6>  (690) 
N

>  <2E1>  (690) 
N

>  <3A4>  (690) 
N

>  <Citation>  (690) 
Nucleic Acids Res. 2018. Jan 4;46(D1):D608-17. PMID:29140435
Nucleic Acids Res. 2018 Jan 4;46(D1):D1074-D1082. PMID:29126136
Nucleic Acids Res., 45:D380-388 (2017).  PMID:27924025
Nucleic Acids Res. 2016 Jan 4;44(D1):D1202-13. PMID:26400175

>  <ROMol>  (690) 
<rdkit.Chem.rdchem.Mol object at 0x7c2905dc68f0>

>  <Drug_like>  (690) 
True

$$$$
10-Undecenal
     RDKit          2D

 12 11  0  0  0  0  0  0  0  0999 V2000
    1.4524    3.4052    0.0000 C   0  0  0  0  0  0  0  0  0  0  0  0
    2.2024    2.1062    0.0000 C   0  0  0  0  0  0  0  0  0  0  0  0
    3.7024    2.1062    0.0000 C   0  0  0  0  0  0  0  0  0  0  0  0
    4.4524    0.8071    0.0000 C   0  0  0  0  0  0  0  0  0  0  0  0
    6.9124    0.8071    0.0000 C   0  0  0  0  0  0  0  0  0  0  0  0
    7.6624   -0.4919    0.0000 C   0  0  0  0  0  0  0  0  0  0  0  0
   10.1224   -0.4919    0.0000 C   0  0  0  0  0  0  0  0  0  0  0  0
   11.1124   -2.2066    0.0000 C   0  0  0  0  0  0  0  0  0  0  0  0
   13.0924   -2.2066    0.0000 C   0  0  0  0  0  0  0  0  0  0  0  0
   13.8424   -3.5057    0.0000 C   0  0  0  0  0  0  0  0  0  0  0  0
   15.3424   -3.5057    0.0000 C   0  0  0  0  0  0  0  0  0  0  0  0
   16.0924   -4.8047    0.0000 O   0  0  0  0  0  0  0  0  0  0  0  0
  1  2  2  0
  2  3  1  0
  3  4  1  0
  4  5  1  0
  5  6  1  0
  6  7  1  0
  7  8  1  0
  8  9  1  0
  9 10  1  0
 10 11  1  0
 11 12  2  0
M  END
>  <cdk:Title>  (691) 
10-Undecenal

>  <1A2>  (691) 
N

>  <2A6>  (691) 
N

>  <2B6>  (691) 
N

>  <2C8>  (691) 
N

>  <2C9>  (691) 
N

>  <2C19>  (691) 
N

>  <2D6>  (691) 
N

>  <2E1>  (691) 
N

>  <3A4>  (691) 
N

>  <Citation>  (691) 
Nucleic Acids Res. 2018. Jan 4;46(D1):D608-17. PMID:29140435
Nucleic Acids Res. 2018 Jan 4;46(D1):D1074-D1082. PMID:29126136
Nucleic Acids Res., 45:D380-388 (2017).  PMID:27924025
Nucleic Acids Res. 2016 Jan 4;44(D1):D1202-13. PMID:26400175

>  <ROMol>  (691) 
<rdkit.Chem.rdchem.Mol object at 0x7c2905dc6960>

>  <Drug_like>  (691) 
True

$$$$
4-Dihydroboldenone
     RDKit          2D

 21 24  0  0  0  0  0  0  0  0999 V2000
    3.8653   -2.8842    0.0000 C   0  0  0  0  0  0  0  0  0  0  0  0
    2.5653   -3.6342    0.0000 C   0  0  0  0  0  0  0  0  0  0  0  0
    1.2653   -2.8842    0.0000 C   0  0  0  0  0  0  0  0  0  0  0  0
   -0.0347   -3.6342    0.0000 C   0  0  0  0  0  0  0  0  0  0  0  0
   -1.3347   -2.8842    0.0000 C   0  0  0  0  0  0  0  0  0  0  0  0
   -2.6347   -3.6342    0.0000 C   0  0  0  0  0  0  0  0  0  0  0  0
   -2.6347   -5.1342    0.0000 C   0  0  0  0  0  0  0  0  0  0  0  0
   -1.3347   -5.8842    0.0000 C   0  0  0  0  0  0  0  0  0  0  0  0
   -0.0347   -5.1342    0.0000 C   0  0  0  0  0  0  0  0  0  0  0  0
    1.2653   -5.8842    0.0000 C   0  0  0  0  0  0  0  0  0  0  0  0
    2.5653   -5.1342    0.0000 C   0  0  0  0  0  0  0  0  0  0  0  0
   -3.9336   -5.8844    0.0000 O   0  0  0  0  0  0  0  0  0  0  0  0
   -0.0347   -1.1742    0.0000 C   0  0  0  0  0  0  0  0  0  0  0  0
    1.2653   -1.3842    0.0000 C   0  0  0  0  0  0  0  0  0  0  0  0
    2.5653   -0.6342    0.0000 C   0  0  0  0  0  0  0  0  0  0  0  0
    3.8653   -1.3842    0.0000 C   0  0  0  0  0  0  0  0  0  0  0  0
    5.2853   -0.9242    0.0000 C   0  0  0  0  0  0  0  0  0  0  0  0
    6.1653   -2.1342    0.0000 C   0  0  0  0  0  0  0  0  0  0  0  0
    5.2853   -3.3442    0.0000 C   0  0  0  0  0  0  0  0  0  0  0  0
    6.5844   -0.1742    0.0000 O   0  0  0  0  0  0  0  0  0  0  0  0
    4.1735    1.5396    0.0000 C   0  0  0  0  0  0  0  0  0  0  0  0
  1  2  1  0
  2  3  1  0
  3  4  1  0
  4  5  1  0
  5  6  2  0
  6  7  1  0
  7  8  1  0
  8  9  1  0
  4  9  1  0
  9 10  1  0
 10 11  1  0
  2 11  1  0
  7 12  2  0
  4 13  1  1
  3 14  1  0
 14 15  1  0
 15 16  1  0
  1 16  1  0
 16 17  1  0
 17 18  1  0
 18 19  1  0
  1 19  1  0
 17 20  1  0
 16 21  1  1
M  END
>  <cdk:Title>  (692) 
4-Dihydroboldenone

>  <1A2>  (692) 
N

>  <2A6>  (692) 
N

>  <2B6>  (692) 
N

>  <2C8>  (692) 
N

>  <2C9>  (692) 
N

>  <2C19>  (692) 
N

>  <2D6>  (692) 
N

>  <2E1>  (692) 
N

>  <3A4>  (692) 
N

>  <Citation>  (692) 
Nucleic Acids Res. 2018. Jan 4;46(D1):D608-17. PMID:29140435
Nucleic Acids Res. 2018 Jan 4;46(D1):D1074-D1082. PMID:29126136
Nucleic Acids Res., 45:D380-388 (2017).  PMID:27924025
Nucleic Acids Res. 2016 Jan 4;44(D1):D1202-13. PMID:26400175

>  <ROMol>  (692) 
<rdkit.Chem.rdchem.Mol object at 0x7c2905dc6a40>

>  <Drug_like>  (692) 
True

$$$$
2-[(1S_3S_5R)-1_2_2-Trimethyl-6-oxabicyclo[3.1.0]hexan-3-yl]acetaldehyde
     RDKit          2D

 12 13  0  0  0  0  0  0  0  0999 V2000
    2.1099    0.9273    0.0000 C   0  0  0  0  0  0  0  0  0  0  0  0
   -0.7887    1.4190    0.0000 C   0  0  0  0  0  0  0  0  0  0  0  0
   -0.1232    3.2839    0.0000 C   0  0  0  0  0  0  0  0  0  0  0  0
   -0.7787   -0.0810    0.0000 C   0  0  0  0  0  0  0  0  0  0  0  0
    0.2430   -2.8377    0.0000 C   0  0  0  0  0  0  0  0  0  0  0  0
    1.7217   -3.0896    0.0000 C   0  0  0  0  0  0  0  0  0  0  0  0
    2.2430   -4.4961    0.0000 O   0  0  0  0  0  0  0  0  0  0  0  0
   -2.0787   -0.8410    0.0000 C   0  0  0  0  0  0  0  0  0  0  0  0
   -3.3487   -0.0910    0.0000 C   0  0  0  0  0  0  0  0  0  0  0  0
   -2.0887    2.1590    0.0000 C   0  0  0  0  0  0  0  0  0  0  0  0
   -2.1001    4.1390    0.0000 C   0  0  0  0  0  0  0  0  0  0  0  0
   -3.3887    1.3990    0.0000 O   0  0  0  0  0  0  0  0  0  0  0  0
  1  2  1  0
  2  3  1  0
  2  4  1  0
  4  5  1  0
  5  6  1  0
  6  7  2  0
  4  8  1  0
  8  9  1  0
  9 10  1  0
  2 10  1  0
 10 11  1  6
 10 12  1  0
  9 12  1  0
M  END
>  <cdk:Title>  (693) 
2-[(1S_3S_5R)-1_2_2-Trimethyl-6-oxabicyclo[3.1.0]hexan-3-yl]acetaldehyde

>  <1A2>  (693) 
N

>  <2A6>  (693) 
N

>  <2B6>  (693) 
N

>  <2C8>  (693) 
N

>  <2C9>  (693) 
N

>  <2C19>  (693) 
N

>  <2D6>  (693) 
N

>  <2E1>  (693) 
N

>  <3A4>  (693) 
N

>  <Citation>  (693) 
Nucleic Acids Res. 2018. Jan 4;46(D1):D608-17. PMID:29140435
Nucleic Acids Res. 2018 Jan 4;46(D1):D1074-D1082. PMID:29126136
Nucleic Acids Res., 45:D380-388 (2017).  PMID:27924025
Nucleic Acids Res. 2016 Jan 4;44(D1):D1202-13. PMID:26400175

>  <ROMol>  (693) 
<rdkit.Chem.rdchem.Mol object at 0x7c2905dc6c70>

>  <Drug_like>  (693) 
True

$$$$
5-Isopropyl-2-methylphenol acetate
     RDKit          2D

 14 14  0  0  0  0  0  0  0  0999 V2000
    3.8028    2.8013    0.0000 C   0  0  0  0  0  0  0  0  0  0  0  0
    3.2898    4.2109    0.0000 C   0  0  0  0  0  0  0  0  0  0  0  0
    3.2898    5.7109    0.0000 C   0  0  0  0  0  0  0  0  0  0  0  0
    1.1594    2.9809    0.0000 C   0  0  0  0  0  0  0  0  0  0  0  0
   -0.1401    3.7317    0.0000 C   0  0  0  0  0  0  0  0  0  0  0  0
   -1.4392    2.9817    0.0000 C   0  0  0  0  0  0  0  0  0  0  0  0
   -1.4387    1.4809    0.0000 C   0  0  0  0  0  0  0  0  0  0  0  0
   -2.7377    0.7309    0.0000 C   0  0  0  0  0  0  0  0  0  0  0  0
   -0.1392    0.7300    0.0000 C   0  0  0  0  0  0  0  0  0  0  0  0
    1.1599    1.4800    0.0000 C   0  0  0  0  0  0  0  0  0  0  0  0
   -0.1394   -0.7700    0.0000 O   0  0  0  0  0  0  0  0  0  0  0  0
    1.1595   -1.5202    0.0000 C   0  0  0  0  0  0  0  0  0  0  0  0
    1.1593   -3.0202    0.0000 C   0  0  0  0  0  0  0  0  0  0  0  0
    2.4587   -0.7704    0.0000 O   0  0  0  0  0  0  0  0  0  0  0  0
  1  2  1  0
  2  3  1  0
  2  4  1  0
  4  5  2  0
  5  6  1  0
  6  7  2  0
  7  8  1  0
  7  9  1  0
  9 10  2  0
  4 10  1  0
  9 11  1  0
 11 12  1  0
 12 13  1  0
 12 14  2  0
M  END
>  <cdk:Title>  (694) 
5-Isopropyl-2-methylphenol acetate

>  <1A2>  (694) 
N

>  <2A6>  (694) 
N

>  <2B6>  (694) 
N

>  <2C8>  (694) 
N

>  <2C9>  (694) 
N

>  <2C19>  (694) 
N

>  <2D6>  (694) 
N

>  <2E1>  (694) 
N

>  <3A4>  (694) 
N

>  <Citation>  (694) 
Nucleic Acids Res. 2018. Jan 4;46(D1):D608-17. PMID:29140435
Nucleic Acids Res. 2018 Jan 4;46(D1):D1074-D1082. PMID:29126136
Nucleic Acids Res., 45:D380-388 (2017).  PMID:27924025
Nucleic Acids Res. 2016 Jan 4;44(D1):D1202-13. PMID:26400175

>  <ROMol>  (694) 
<rdkit.Chem.rdchem.Mol object at 0x7c2905dc6ce0>

>  <Drug_like>  (694) 
True

$$$$
Aromadendrin
     RDKit          2D

 21 23  0  0  0  0  0  0  0  0999 V2000
    6.3277    1.8602    0.0000 C   0  0  0  0  0  0  0  0  0  0  0  0
    6.8870    0.4207    0.0000 C   0  0  0  0  0  0  0  0  0  0  0  0
    5.9286   -0.7332    0.0000 C   0  0  0  0  0  0  0  0  0  0  0  0
    4.4109   -0.4476    0.0000 C   0  0  0  0  0  0  0  0  0  0  0  0
    3.9132    0.9408    0.0000 C   0  0  0  0  0  0  0  0  0  0  0  0
    4.8716    2.0947    0.0000 C   0  0  0  0  0  0  0  0  0  0  0  0
    1.9632    1.2844    0.0000 C   0  0  0  0  0  0  0  0  0  0  0  0
    1.9632   -0.2156    0.0000 C   0  0  0  0  0  0  0  0  0  0  0  0
    0.6632   -0.9656    0.0000 C   0  0  0  0  0  0  0  0  0  0  0  0
   -0.6368   -0.2156    0.0000 C   0  0  0  0  0  0  0  0  0  0  0  0
   -1.9368   -0.9656    0.0000 C   0  0  0  0  0  0  0  0  0  0  0  0
   -1.9368   -2.4656    0.0000 O   0  0  0  0  0  0  0  0  0  0  0  0
   -3.2368   -0.2156    0.0000 C   0  0  0  0  0  0  0  0  0  0  0  0
   -3.2368    1.2844    0.0000 C   0  0  0  0  0  0  0  0  0  0  0  0
   -1.9368    2.0344    0.0000 C   0  0  0  0  0  0  0  0  0  0  0  0
   -0.6368    1.2844    0.0000 C   0  0  0  0  0  0  0  0  0  0  0  0
    0.6632    2.0344    0.0000 O   0  0  0  0  0  0  0  0  0  0  0  0
   -4.5357    2.0346    0.0000 O   0  0  0  0  0  0  0  0  0  0  0  0
    0.6632   -2.4656    0.0000 O   0  0  0  0  0  0  0  0  0  0  0  0
    2.6400   -2.0763    0.0000 O   0  0  0  0  0  0  0  0  0  0  0  0
    8.3676    0.1799    0.0000 O   0  0  0  0  0  0  0  0  0  0  0  0
  1  2  2  0
  2  3  1  0
  3  4  2  0
  4  5  1  0
  5  6  2  0
  1  6  1  0
  5  7  1  0
  7  8  1  0
  8  9  1  0
  9 10  1  0
 10 11  2  0
 11 12  1  0
 11 13  1  0
 13 14  2  0
 14 15  1  0
 15 16  2  0
 10 16  1  0
 16 17  1  0
  7 17  1  0
 14 18  1  0
  9 19  2  0
  8 20  1  0
  2 21  1  0
M  END
>  <cdk:Title>  (695) 
Aromadendrin

>  <1A2>  (695) 
N

>  <2A6>  (695) 
N

>  <2B6>  (695) 
N

>  <2C8>  (695) 
N

>  <2C9>  (695) 
N

>  <2C19>  (695) 
N

>  <2D6>  (695) 
N

>  <2E1>  (695) 
N

>  <3A4>  (695) 
N

>  <Citation>  (695) 
Nucleic Acids Res. 2018. Jan 4;46(D1):D608-17. PMID:29140435
Nucleic Acids Res. 2018 Jan 4;46(D1):D1074-D1082. PMID:29126136
Nucleic Acids Res., 45:D380-388 (2017).  PMID:27924025
Nucleic Acids Res. 2016 Jan 4;44(D1):D1202-13. PMID:26400175

>  <ROMol>  (695) 
<rdkit.Chem.rdchem.Mol object at 0x7c2905dc6d50>

>  <Drug_like>  (695) 
True

$$$$
Sumiki's acid
     RDKit          2D

 10 10  0  0  0  0  0  0  0  0999 V2000
    2.9461    2.0029    0.0000 O   0  0  0  0  0  0  0  0  0  0  0  0
    2.6360    0.5353    0.0000 C   0  0  0  0  0  0  0  0  0  0  0  0
    1.2100    0.0700    0.0000 C   0  0  0  0  0  0  0  0  0  0  0  0
    0.0000    0.9500    0.0000 O   0  0  0  0  0  0  0  0  0  0  0  0
   -1.2100    0.0700    0.0000 C   0  0  0  0  0  0  0  0  0  0  0  0
   -2.6360    0.5353    0.0000 C   0  0  0  0  0  0  0  0  0  0  0  0
   -3.7520   -0.4670    0.0000 O   0  0  0  0  0  0  0  0  0  0  0  0
   -2.9461    2.0029    0.0000 O   0  0  0  0  0  0  0  0  0  0  0  0
   -0.7500   -1.3600    0.0000 C   0  0  0  0  0  0  0  0  0  0  0  0
    0.7500   -1.3600    0.0000 C   0  0  0  0  0  0  0  0  0  0  0  0
  1  2  1  0
  2  3  1  0
  3  4  1  0
  4  5  1  0
  5  6  1  0
  6  7  1  0
  6  8  2  0
  5  9  2  0
  9 10  1  0
  3 10  2  0
M  END
>  <cdk:Title>  (696) 
Sumiki's acid

>  <1A2>  (696) 
N

>  <2A6>  (696) 
N

>  <2B6>  (696) 
N

>  <2C8>  (696) 
N

>  <2C9>  (696) 
N

>  <2C19>  (696) 
N

>  <2D6>  (696) 
N

>  <2E1>  (696) 
N

>  <3A4>  (696) 
N

>  <Citation>  (696) 
Nucleic Acids Res. 2018. Jan 4;46(D1):D608-17. PMID:29140435
Nucleic Acids Res. 2018 Jan 4;46(D1):D1074-D1082. PMID:29126136
Nucleic Acids Res., 45:D380-388 (2017).  PMID:27924025
Nucleic Acids Res. 2016 Jan 4;44(D1):D1202-13. PMID:26400175

>  <ROMol>  (696) 
<rdkit.Chem.rdchem.Mol object at 0x7c2905dc6dc0>

>  <Drug_like>  (696) 
True

$$$$
5-Amino-1-(5-phospho-D-ribosyl)imidazole
     RDKit          2D

 19 20  0  0  0  0  0  0  0  0999 V2000
   -5.2994   -0.0250    0.0000 C   0  0  0  0  0  0  0  0  0  0  0  0
   -4.1911    0.9748    0.0000 C   0  0  0  0  0  0  0  0  0  0  0  0
   -2.8920    0.2249    0.0000 C   0  0  0  0  0  0  0  0  0  0  0  0
   -3.2036   -1.2349    0.0000 C   0  0  0  0  0  0  0  0  0  0  0  0
   -4.6915   -1.3921    0.0000 O   0  0  0  0  0  0  0  0  0  0  0  0
   -1.7119   -1.3923    0.0000 N   0  0  0  0  0  0  0  0  0  0  0  0
   -0.7122   -0.2838    0.0000 C   0  0  0  0  0  0  0  0  0  0  0  0
    0.6636   -0.8867    0.0000 N   0  0  0  0  0  0  0  0  0  0  0  0
    0.4979   -2.3796    0.0000 C   0  0  0  0  0  0  0  0  0  0  0  0
   -0.9618   -2.6913    0.0000 C   0  0  0  0  0  0  0  0  0  0  0  0
   -1.5712   -4.0619    0.0000 N   0  0  0  0  0  0  0  0  0  0  0  0
   -2.0863    2.0335    0.0000 O   0  0  0  0  0  0  0  0  0  0  0  0
   -5.3065    1.9778    0.0000 O   0  0  0  0  0  0  0  0  0  0  0  0
   -6.5985   -0.7750    0.0000 C   0  0  0  0  0  0  0  0  0  0  0  0
   -7.8975   -0.0251    0.0000 O   0  0  0  0  0  0  0  0  0  0  0  0
   -9.1965   -0.7751    0.0000 P   0  0  0  0  0  0  0  0  0  0  0  0
   -9.1965   -2.2751    0.0000 O   0  0  0  0  0  0  0  0  0  0  0  0
   -9.7096    0.6344    0.0000 O   0  0  0  0  0  0  0  0  0  0  0  0
  -10.6737   -1.0356    0.0000 O   0  0  0  0  0  0  0  0  0  0  0  0
  1  2  1  0
  2  3  1  0
  3  4  1  0
  4  5  1  0
  1  5  1  0
  4  6  1  0
  6  7  1  0
  7  8  2  0
  8  9  1  0
  9 10  2  0
  6 10  1  0
 10 11  1  0
  3 12  1  0
  2 13  1  0
  1 14  1  0
 14 15  1  0
 15 16  1  0
 16 17  1  0
 16 18  1  0
 16 19  2  0
M  END
>  <cdk:Title>  (697) 
5-Amino-1-(5-phospho-D-ribosyl)imidazole

>  <1A2>  (697) 
N

>  <2A6>  (697) 
N

>  <2B6>  (697) 
N

>  <2C8>  (697) 
N

>  <2C9>  (697) 
N

>  <2C19>  (697) 
N

>  <2D6>  (697) 
N

>  <2E1>  (697) 
N

>  <3A4>  (697) 
N

>  <Citation>  (697) 
Nucleic Acids Res. 2018. Jan 4;46(D1):D608-17. PMID:29140435
Nucleic Acids Res. 2018 Jan 4;46(D1):D1074-D1082. PMID:29126136
Nucleic Acids Res., 45:D380-388 (2017).  PMID:27924025
Nucleic Acids Res. 2016 Jan 4;44(D1):D1202-13. PMID:26400175

>  <ROMol>  (697) 
<rdkit.Chem.rdchem.Mol object at 0x7c2905dc6e30>

>  <Drug_like>  (697) 
True

$$$$
Ganoderic acid xi
     RDKit          2D

 37 40  0  0  0  0  0  0  0  0999 V2000
   -5.7710   -0.7813    0.0000 C   0  0  0  0  0  0  0  0  0  0  0  0
   -5.7710   -2.2813    0.0000 C   0  0  0  0  0  0  0  0  0  0  0  0
   -4.4710   -3.0313    0.0000 C   0  0  0  0  0  0  0  0  0  0  0  0
   -3.1710   -2.2813    0.0000 C   0  0  0  0  0  0  0  0  0  0  0  0
   -3.1710   -0.7813    0.0000 C   0  0  0  0  0  0  0  0  0  0  0  0
   -4.4710   -0.0313    0.0000 C   0  0  0  0  0  0  0  0  0  0  0  0
   -1.8710   -0.0313    0.0000 C   0  0  0  0  0  0  0  0  0  0  0  0
   -0.5710   -0.7813    0.0000 C   0  0  0  0  0  0  0  0  0  0  0  0
   -0.5710   -2.2813    0.0000 C   0  0  0  0  0  0  0  0  0  0  0  0
   -1.8710   -3.0313    0.0000 C   0  0  0  0  0  0  0  0  0  0  0  0
    0.7279   -3.0315    0.0000 O   0  0  0  0  0  0  0  0  0  0  0  0
    0.7290   -0.0313    0.0000 C   0  0  0  0  0  0  0  0  0  0  0  0
    0.7290    1.4687    0.0000 C   0  0  0  0  0  0  0  0  0  0  0  0
   -0.5710    2.2187    0.0000 C   0  0  0  0  0  0  0  0  0  0  0  0
   -1.8710    1.4687    0.0000 C   0  0  0  0  0  0  0  0  0  0  0  0
   -4.4169    2.9391    0.0000 O   0  0  0  0  0  0  0  0  0  0  0  0
    2.1590    1.9287    0.0000 C   0  0  0  0  0  0  0  0  0  0  0  0
    3.0390    0.7187    0.0000 C   0  0  0  0  0  0  0  0  0  0  0  0
    2.1590   -0.4913    0.0000 C   0  0  0  0  0  0  0  0  0  0  0  0
    2.6243   -1.9173    0.0000 O   0  0  0  0  0  0  0  0  0  0  0  0
    4.7061    3.3970    0.0000 C   0  0  0  0  0  0  0  0  0  0  0  0
    3.7427    4.5467    0.0000 C   0  0  0  0  0  0  0  0  0  0  0  0
    6.4202    2.4059    0.0000 C   0  0  0  0  0  0  0  0  0  0  0  0
    7.7197    3.1550    0.0000 C   0  0  0  0  0  0  0  0  0  0  0  0
    9.0183    2.4042    0.0000 C   0  0  0  0  0  0  0  0  0  0  0  0
   10.3178    3.1533    0.0000 C   0  0  0  0  0  0  0  0  0  0  0  0
   11.6163    2.4025    0.0000 C   0  0  0  0  0  0  0  0  0  0  0  0
   12.9159    3.1516    0.0000 O   0  0  0  0  0  0  0  0  0  0  0  0
   11.6153    0.9025    0.0000 O   0  0  0  0  0  0  0  0  0  0  0  0
   10.3188    4.6533    0.0000 C   0  0  0  0  0  0  0  0  0  0  0  0
    6.7563    4.3047    0.0000 O   0  0  0  0  0  0  0  0  0  0  0  0
    0.9894    3.9149    0.0000 C   0  0  0  0  0  0  0  0  0  0  0  0
    0.9386   -2.0002    0.0000 C   0  0  0  0  0  0  0  0  0  0  0  0
   -3.1710    0.7187    0.0000 C   0  0  0  0  0  0  0  0  0  0  0  0
   -6.0520   -4.9159    0.0000 C   0  0  0  0  0  0  0  0  0  0  0  0
   -2.8899   -4.9159    0.0000 C   0  0  0  0  0  0  0  0  0  0  0  0
   -7.2482   -2.0210    0.0000 O   0  0  0  0  0  0  0  0  0  0  0  0
  1  2  1  0
  2  3  1  0
  3  4  1  0
  4  5  1  0
  5  6  1  0
  1  6  1  0
  5  7  1  0
  7  8  2  0
  8  9  1  0
  9 10  1  0
  4 10  1  0
  9 11  2  0
  8 12  1  0
 12 13  1  0
 13 14  1  0
 14 15  1  0
  7 15  1  0
 15 16  2  0
 13 17  1  0
 17 18  1  0
 18 19  1  0
 12 19  1  0
 19 20  2  0
 17 21  1  0
 21 22  1  0
 21 23  1  0
 23 24  1  0
 24 25  1  0
 25 26  2  0
 26 27  1  0
 27 28  1  0
 27 29  2  0
 26 30  1  0
 24 31  1  0
 13 32  1  1
 12 33  1  1
  5 34  1  1
  3 35  1  0
  3 36  1  0
  2 37  1  0
M  END
>  <cdk:Title>  (698) 
Ganoderic acid xi

>  <1A2>  (698) 
N

>  <2A6>  (698) 
N

>  <2B6>  (698) 
N

>  <2C8>  (698) 
N

>  <2C9>  (698) 
N

>  <2C19>  (698) 
N

>  <2D6>  (698) 
N

>  <2E1>  (698) 
N

>  <3A4>  (698) 
N

>  <Citation>  (698) 
Nucleic Acids Res. 2018. Jan 4;46(D1):D608-17. PMID:29140435
Nucleic Acids Res. 2018 Jan 4;46(D1):D1074-D1082. PMID:29126136
Nucleic Acids Res., 45:D380-388 (2017).  PMID:27924025
Nucleic Acids Res. 2016 Jan 4;44(D1):D1202-13. PMID:26400175

>  <ROMol>  (698) 
<rdkit.Chem.rdchem.Mol object at 0x7c2905dc6ea0>

>  <Drug_like>  (698) 
True

$$$$
(6R_10R)-6_10_14-trimethyl-2-methylidenepentadecanal
     RDKit          2D

 20 19  0  0  0  0  0  0  0  0999 V2000
   -2.9981    0.8184    0.0000 C   0  0  0  0  0  0  0  0  0  0  0  0
   -3.3419   -1.1315    0.0000 C   0  0  0  0  0  0  0  0  0  0  0  0
   -4.0919   -2.4305    0.0000 C   0  0  0  0  0  0  0  0  0  0  0  0
   -1.8419   -1.1315    0.0000 C   0  0  0  0  0  0  0  0  0  0  0  0
   -1.0919   -2.4305    0.0000 C   0  0  0  0  0  0  0  0  0  0  0  0
    1.3681   -2.4305    0.0000 C   0  0  0  0  0  0  0  0  0  0  0  0
    2.1181   -3.7296    0.0000 C   0  0  0  0  0  0  0  0  0  0  0  0
    2.3786   -5.2068    0.0000 C   0  0  0  0  0  0  0  0  0  0  0  0
    5.0581   -3.7296    0.0000 C   0  0  0  0  0  0  0  0  0  0  0  0
    6.0481   -5.4443    0.0000 C   0  0  0  0  0  0  0  0  0  0  0  0
    8.0281   -5.4443    0.0000 C   0  0  0  0  0  0  0  0  0  0  0  0
    9.0181   -7.1590    0.0000 C   0  0  0  0  0  0  0  0  0  0  0  0
    9.2786   -8.6363    0.0000 C   0  0  0  0  0  0  0  0  0  0  0  0
   11.4781   -7.1590    0.0000 C   0  0  0  0  0  0  0  0  0  0  0  0
   12.9481   -9.7052    0.0000 C   0  0  0  0  0  0  0  0  0  0  0  0
   14.4481   -9.7052    0.0000 C   0  0  0  0  0  0  0  0  0  0  0  0
   15.1981  -11.0042    0.0000 C   0  0  0  0  0  0  0  0  0  0  0  0
   16.6981  -11.0042    0.0000 C   0  0  0  0  0  0  0  0  0  0  0  0
   14.4481  -12.3032    0.0000 C   0  0  0  0  0  0  0  0  0  0  0  0
   15.1981  -13.6023    0.0000 O   0  0  0  0  0  0  0  0  0  0  0  0
  1  2  1  0
  2  3  1  0
  2  4  1  0
  4  5  1  0
  5  6  1  0
  6  7  1  0
  7  8  1  0
  7  9  1  0
  9 10  1  0
 10 11  1  0
 11 12  1  0
 12 13  1  0
 12 14  1  0
 14 15  1  0
 15 16  1  0
 16 17  1  0
 17 18  2  0
 17 19  1  0
 19 20  2  0
M  END
>  <cdk:Title>  (699) 
(6R_10R)-6_10_14-trimethyl-2-methylidenepentadecanal

>  <1A2>  (699) 
N

>  <2A6>  (699) 
N

>  <2B6>  (699) 
N

>  <2C8>  (699) 
N

>  <2C9>  (699) 
N

>  <2C19>  (699) 
N

>  <2D6>  (699) 
N

>  <2E1>  (699) 
N

>  <3A4>  (699) 
N

>  <Citation>  (699) 
Nucleic Acids Res. 2018. Jan 4;46(D1):D608-17. PMID:29140435
Nucleic Acids Res. 2018 Jan 4;46(D1):D1074-D1082. PMID:29126136
Nucleic Acids Res., 45:D380-388 (2017).  PMID:27924025
Nucleic Acids Res. 2016 Jan 4;44(D1):D1202-13. PMID:26400175

>  <ROMol>  (699) 
<rdkit.Chem.rdchem.Mol object at 0x7c2905dc6f80>

>  <Drug_like>  (699) 
True

$$$$
(2S_6R)_2_6_10_trimethylundecanoic acid
     RDKit          2D

 16 15  0  0  0  0  0  0  0  0999 V2000
   12.8394   -9.8523    0.0000 O   0  0  0  0  0  0  0  0  0  0  0  0
   12.0894   -8.5532    0.0000 C   0  0  0  0  0  0  0  0  0  0  0  0
   12.8394   -7.2542    0.0000 O   0  0  0  0  0  0  0  0  0  0  0  0
   10.5894   -8.5532    0.0000 C   0  0  0  0  0  0  0  0  0  0  0  0
    9.5994   -6.8385    0.0000 C   0  0  0  0  0  0  0  0  0  0  0  0
    8.0994   -6.8385    0.0000 C   0  0  0  0  0  0  0  0  0  0  0  0
    6.6294   -4.2924    0.0000 C   0  0  0  0  0  0  0  0  0  0  0  0
    4.1694   -4.2924    0.0000 C   0  0  0  0  0  0  0  0  0  0  0  0
    2.9394   -2.1620    0.0000 C   0  0  0  0  0  0  0  0  0  0  0  0
    0.9594   -2.1620    0.0000 C   0  0  0  0  0  0  0  0  0  0  0  0
    0.2094   -0.8629    0.0000 C   0  0  0  0  0  0  0  0  0  0  0  0
   -1.2906   -0.8629    0.0000 C   0  0  0  0  0  0  0  0  0  0  0  0
   -2.0406   -2.1620    0.0000 C   0  0  0  0  0  0  0  0  0  0  0  0
   -0.9468    1.0870    0.0000 C   0  0  0  0  0  0  0  0  0  0  0  0
    4.4299   -5.7696    0.0000 C   0  0  0  0  0  0  0  0  0  0  0  0
   10.8499  -10.0305    0.0000 C   0  0  0  0  0  0  0  0  0  0  0  0
  1  2  1  0
  2  3  2  0
  2  4  1  0
  4  5  1  0
  5  6  1  0
  6  7  1  0
  7  8  1  0
  8  9  1  0
  9 10  1  0
 10 11  1  0
 11 12  1  0
 12 13  1  0
 12 14  1  0
  8 15  1  0
  4 16  1  0
M  END
>  <cdk:Title>  (700) 
(2S_6R)_2_6_10_trimethylundecanoic acid

>  <1A2>  (700) 
N

>  <2A6>  (700) 
N

>  <2B6>  (700) 
N

>  <2C8>  (700) 
N

>  <2C9>  (700) 
N

>  <2C19>  (700) 
N

>  <2D6>  (700) 
N

>  <2E1>  (700) 
N

>  <3A4>  (700) 
N

>  <Citation>  (700) 
Nucleic Acids Res. 2018. Jan 4;46(D1):D608-17. PMID:29140435
Nucleic Acids Res. 2018 Jan 4;46(D1):D1074-D1082. PMID:29126136
Nucleic Acids Res., 45:D380-388 (2017).  PMID:27924025
Nucleic Acids Res. 2016 Jan 4;44(D1):D1202-13. PMID:26400175

>  <ROMol>  (700) 
<rdkit.Chem.rdchem.Mol object at 0x7c2905dc7140>

>  <Drug_like>  (700) 
True

$$$$
Phytenal
     RDKit          2D

 21 20  0  0  0  0  0  0  0  0999 V2000
   -3.1856    0.7682    0.0000 C   0  0  0  0  0  0  0  0  0  0  0  0
   -3.5294   -1.1817    0.0000 C   0  0  0  0  0  0  0  0  0  0  0  0
   -4.2794   -2.4808    0.0000 C   0  0  0  0  0  0  0  0  0  0  0  0
   -2.0294   -1.1817    0.0000 C   0  0  0  0  0  0  0  0  0  0  0  0
   -1.2794   -2.4808    0.0000 C   0  0  0  0  0  0  0  0  0  0  0  0
    1.1806   -2.4808    0.0000 C   0  0  0  0  0  0  0  0  0  0  0  0
    1.9306   -3.7798    0.0000 C   0  0  0  0  0  0  0  0  0  0  0  0
    2.1911   -5.2570    0.0000 C   0  0  0  0  0  0  0  0  0  0  0  0
    4.8706   -3.7798    0.0000 C   0  0  0  0  0  0  0  0  0  0  0  0
    5.8606   -5.4946    0.0000 C   0  0  0  0  0  0  0  0  0  0  0  0
    7.8406   -5.4946    0.0000 C   0  0  0  0  0  0  0  0  0  0  0  0
    8.8306   -7.2093    0.0000 C   0  0  0  0  0  0  0  0  0  0  0  0
    9.0911   -8.6865    0.0000 C   0  0  0  0  0  0  0  0  0  0  0  0
   11.2906   -7.2093    0.0000 C   0  0  0  0  0  0  0  0  0  0  0  0
   12.7606   -9.7554    0.0000 C   0  0  0  0  0  0  0  0  0  0  0  0
   14.2606   -9.7554    0.0000 C   0  0  0  0  0  0  0  0  0  0  0  0
   15.0106  -11.0544    0.0000 C   0  0  0  0  0  0  0  0  0  0  0  0
   14.2606  -12.3535    0.0000 C   0  0  0  0  0  0  0  0  0  0  0  0
   15.0106  -13.6525    0.0000 C   0  0  0  0  0  0  0  0  0  0  0  0
   14.2606  -14.9516    0.0000 O   0  0  0  0  0  0  0  0  0  0  0  0
   16.5106  -11.0544    0.0000 C   0  0  0  0  0  0  0  0  0  0  0  0
  1  2  1  0
  2  3  1  0
  2  4  1  0
  4  5  1  0
  5  6  1  0
  6  7  1  0
  7  8  1  0
  7  9  1  0
  9 10  1  0
 10 11  1  0
 11 12  1  0
 12 13  1  0
 12 14  1  0
 14 15  1  0
 15 16  1  0
 16 17  1  0
 17 18  2  0
 18 19  1  0
 19 20  2  0
 17 21  1  0
M  END
>  <cdk:Title>  (701) 
Phytenal

>  <1A2>  (701) 
N

>  <2A6>  (701) 
N

>  <2B6>  (701) 
N

>  <2C8>  (701) 
N

>  <2C9>  (701) 
N

>  <2C19>  (701) 
N

>  <2D6>  (701) 
N

>  <2E1>  (701) 
N

>  <3A4>  (701) 
N

>  <Citation>  (701) 
Nucleic Acids Res. 2018. Jan 4;46(D1):D608-17. PMID:29140435
Nucleic Acids Res. 2018 Jan 4;46(D1):D1074-D1082. PMID:29126136
Nucleic Acids Res., 45:D380-388 (2017).  PMID:27924025
Nucleic Acids Res. 2016 Jan 4;44(D1):D1202-13. PMID:26400175

>  <ROMol>  (701) 
<rdkit.Chem.rdchem.Mol object at 0x7c2905dc7300>

>  <Drug_like>  (701) 
True

$$$$
Gamma-Glutamylcysteine
     RDKit          2D

 16 15  0  0  0  0  0  0  0  0999 V2000
   10.3923   -0.0000    0.0000 C   0  0  0  0  0  0  0  0  0  0  0  0
    9.0933   -0.7500    0.0000 N   0  0  0  0  0  0  0  0  0  0  0  0
    7.7942   -0.0000    0.0000 C   0  0  0  0  0  0  0  0  0  0  0  0
    6.4952   -0.7500    0.0000 C   0  0  0  0  0  0  0  0  0  0  0  0
    4.7805    0.2400    0.0000 C   0  0  0  0  0  0  0  0  0  0  0  0
    3.4814   -0.5100    0.0000 C   0  0  0  0  0  0  0  0  0  0  0  0
    2.1824    0.2400    0.0000 C   0  0  0  0  0  0  0  0  0  0  0  0
    0.8833   -0.5100    0.0000 O   0  0  0  0  0  0  0  0  0  0  0  0
    2.1824    1.7400    0.0000 O   0  0  0  0  0  0  0  0  0  0  0  0
    2.5172   -1.6591    0.0000 N   0  0  0  0  0  0  0  0  0  0  0  0
    7.7942    1.5000    0.0000 O   0  0  0  0  0  0  0  0  0  0  0  0
   11.3565    1.1491    0.0000 C   0  0  0  0  0  0  0  0  0  0  0  0
   12.8337    0.8886    0.0000 O   0  0  0  0  0  0  0  0  0  0  0  0
   10.8435    2.5586    0.0000 O   0  0  0  0  0  0  0  0  0  0  0  0
   11.6913   -0.7500    0.0000 C   0  0  0  0  0  0  0  0  0  0  0  0
   12.9904   -0.0000    0.0000 S   0  0  0  0  0  0  0  0  0  0  0  0
  1  2  1  0
  2  3  1  0
  3  4  1  0
  4  5  1  0
  5  6  1  0
  6  7  1  0
  7  8  1  0
  7  9  2  0
  6 10  1  0
  3 11  2  0
  1 12  1  0
 12 13  1  0
 12 14  2  0
  1 15  1  0
 15 16  1  0
M  END
>  <cdk:Title>  (702) 
Gamma-Glutamylcysteine

>  <1A2>  (702) 
N

>  <2A6>  (702) 
N

>  <2B6>  (702) 
N

>  <2C8>  (702) 
N

>  <2C9>  (702) 
N

>  <2C19>  (702) 
N

>  <2D6>  (702) 
N

>  <2E1>  (702) 
N

>  <3A4>  (702) 
N

>  <Citation>  (702) 
Nucleic Acids Res. 2018. Jan 4;46(D1):D608-17. PMID:29140435
Nucleic Acids Res. 2018 Jan 4;46(D1):D1074-D1082. PMID:29126136
Nucleic Acids Res., 45:D380-388 (2017).  PMID:27924025
Nucleic Acids Res. 2016 Jan 4;44(D1):D1202-13. PMID:26400175

>  <ROMol>  (702) 
<rdkit.Chem.rdchem.Mol object at 0x7c2905dc7370>

>  <Drug_like>  (702) 
True

$$$$
7-Hydroxycostol
     RDKit          2D

 17 18  0  0  0  0  0  0  0  0999 V2000
   -2.4095    4.1555    0.0000 C   0  0  0  0  0  0  0  0  0  0  0  0
   -2.4095    2.6555    0.0000 C   0  0  0  0  0  0  0  0  0  0  0  0
   -3.7095    1.9055    0.0000 C   0  0  0  0  0  0  0  0  0  0  0  0
   -3.7095    0.4055    0.0000 C   0  0  0  0  0  0  0  0  0  0  0  0
   -2.4095   -0.3445    0.0000 C   0  0  0  0  0  0  0  0  0  0  0  0
   -1.1095    0.4055    0.0000 C   0  0  0  0  0  0  0  0  0  0  0  0
   -1.1095   -2.5345    0.0000 C   0  0  0  0  0  0  0  0  0  0  0  0
    0.1905   -0.3445    0.0000 C   0  0  0  0  0  0  0  0  0  0  0  0
    1.4905    0.4055    0.0000 C   0  0  0  0  0  0  0  0  0  0  0  0
    1.4905    1.9055    0.0000 C   0  0  0  0  0  0  0  0  0  0  0  0
    0.1905    2.6555    0.0000 C   0  0  0  0  0  0  0  0  0  0  0  0
   -1.1095    1.9055    0.0000 C   0  0  0  0  0  0  0  0  0  0  0  0
    3.9132    1.4786    0.0000 C   0  0  0  0  0  0  0  0  0  0  0  0
    4.4263    0.0691    0.0000 C   0  0  0  0  0  0  0  0  0  0  0  0
    4.8772    2.6278    0.0000 C   0  0  0  0  0  0  0  0  0  0  0  0
    4.3640    4.0373    0.0000 O   0  0  0  0  0  0  0  0  0  0  0  0
    2.1673    3.7662    0.0000 O   0  0  0  0  0  0  0  0  0  0  0  0
  1  2  2  0
  2  3  1  0
  3  4  1  0
  4  5  1  0
  5  6  1  0
  6  7  1  6
  6  8  1  0
  8  9  1  0
  9 10  1  0
 10 11  1  0
 11 12  1  0
  2 12  1  0
  6 12  1  0
 10 13  1  0
 13 14  2  0
 13 15  1  0
 15 16  1  0
 10 17  1  6
M  END
>  <cdk:Title>  (703) 
7-Hydroxycostol

>  <1A2>  (703) 
N

>  <2A6>  (703) 
N

>  <2B6>  (703) 
N

>  <2C8>  (703) 
N

>  <2C9>  (703) 
N

>  <2C19>  (703) 
N

>  <2D6>  (703) 
N

>  <2E1>  (703) 
N

>  <3A4>  (703) 
N

>  <Citation>  (703) 
Nucleic Acids Res. 2018. Jan 4;46(D1):D608-17. PMID:29140435
Nucleic Acids Res. 2018 Jan 4;46(D1):D1074-D1082. PMID:29126136
Nucleic Acids Res., 45:D380-388 (2017).  PMID:27924025
Nucleic Acids Res. 2016 Jan 4;44(D1):D1202-13. PMID:26400175

>  <ROMol>  (703) 
<rdkit.Chem.rdchem.Mol object at 0x7c2905dc7530>

>  <Drug_like>  (703) 
True

$$$$
2-Furoic acid
     RDKit          2D

  8  8  0  0  0  0  0  0  0  0999 V2000
    0.0251   -1.1819    0.0000 O   0  0  0  0  0  0  0  0  0  0  0  0
    0.1772    0.3147    0.0000 C   0  0  0  0  0  0  0  0  0  0  0  0
    1.6420    0.6176    0.0000 C   0  0  0  0  0  0  0  0  0  0  0  0
    2.3920   -0.6814    0.0000 C   0  0  0  0  0  0  0  0  0  0  0  0
    1.3922   -1.7898    0.0000 C   0  0  0  0  0  0  0  0  0  0  0  0
   -0.9365    1.3195    0.0000 C   0  0  0  0  0  0  0  0  0  0  0  0
   -0.6231    2.7864    0.0000 O   0  0  0  0  0  0  0  0  0  0  0  0
   -2.3635    0.8574    0.0000 O   0  0  0  0  0  0  0  0  0  0  0  0
  1  2  1  0
  2  3  2  0
  3  4  1  0
  4  5  2  0
  1  5  1  0
  2  6  1  0
  6  7  2  0
  6  8  1  0
M  END
>  <cdk:Title>  (704) 
2-Furoic acid

>  <1A2>  (704) 
N

>  <2A6>  (704) 
N

>  <2B6>  (704) 
N

>  <2C8>  (704) 
N

>  <2C9>  (704) 
N

>  <2C19>  (704) 
N

>  <2D6>  (704) 
N

>  <2E1>  (704) 
N

>  <3A4>  (704) 
N

>  <Citation>  (704) 
Nucleic Acids Res. 2018. Jan 4;46(D1):D608-17. PMID:29140435
Nucleic Acids Res. 2018 Jan 4;46(D1):D1074-D1082. PMID:29126136
Nucleic Acids Res., 45:D380-388 (2017).  PMID:27924025
Nucleic Acids Res. 2016 Jan 4;44(D1):D1202-13. PMID:26400175

>  <ROMol>  (704) 
<rdkit.Chem.rdchem.Mol object at 0x7c2905dc75a0>

>  <Drug_like>  (704) 
True

$$$$
1_6-Hexanedithiol
     RDKit          2D

  8  7  0  0  0  0  0  0  0  0999 V2000
    6.6600   -0.1350    0.0000 C   0  0  0  0  0  0  0  0  0  0  0  0
    4.2000   -0.1350    0.0000 C   0  0  0  0  0  0  0  0  0  0  0  0
    3.4500   -1.4340    0.0000 C   0  0  0  0  0  0  0  0  0  0  0  0
    1.9500   -1.4340    0.0000 C   0  0  0  0  0  0  0  0  0  0  0  0
    1.2000   -0.1350    0.0000 S   0  0  0  0  0  0  0  0  0  0  0  0
    7.4100    1.1640    0.0000 C   0  0  0  0  0  0  0  0  0  0  0  0
    8.9100    1.1640    0.0000 C   0  0  0  0  0  0  0  0  0  0  0  0
    9.6600   -0.1350    0.0000 S   0  0  0  0  0  0  0  0  0  0  0  0
  1  2  1  0
  2  3  1  0
  3  4  1  0
  4  5  1  0
  1  6  1  0
  6  7  1  0
  7  8  1  0
M  END
>  <cdk:Title>  (705) 
1_6-Hexanedithiol

>  <1A2>  (705) 
N

>  <2A6>  (705) 
N

>  <2B6>  (705) 
N

>  <2C8>  (705) 
N

>  <2C9>  (705) 
N

>  <2C19>  (705) 
N

>  <2D6>  (705) 
N

>  <2E1>  (705) 
N

>  <3A4>  (705) 
N

>  <Citation>  (705) 
Nucleic Acids Res. 2018. Jan 4;46(D1):D608-17. PMID:29140435
Nucleic Acids Res. 2018 Jan 4;46(D1):D1074-D1082. PMID:29126136
Nucleic Acids Res., 45:D380-388 (2017).  PMID:27924025
Nucleic Acids Res. 2016 Jan 4;44(D1):D1202-13. PMID:26400175

>  <ROMol>  (705) 
<rdkit.Chem.rdchem.Mol object at 0x7c2905dc7610>

>  <Drug_like>  (705) 
True

$$$$
3'-Hydroxystanozolol
     RDKit          2D

 25 29  0  0  0  0  0  0  0  0999 V2000
   -0.7029   -4.7246    0.0000 C   0  0  0  0  0  0  0  0  0  0  0  0
   -1.9929   -5.4246    0.0000 C   0  0  0  0  0  0  0  0  0  0  0  0
   -3.3529   -4.7246    0.0000 C   0  0  0  0  0  0  0  0  0  0  0  0
   -3.3529   -3.2146    0.0000 C   0  0  0  0  0  0  0  0  0  0  0  0
   -1.9929   -2.4746    0.0000 C   0  0  0  0  0  0  0  0  0  0  0  0
   -0.7029   -3.2146    0.0000 C   0  0  0  0  0  0  0  0  0  0  0  0
    0.5771   -2.4746    0.0000 C   0  0  0  0  0  0  0  0  0  0  0  0
    0.5771   -0.9546    0.0000 C   0  0  0  0  0  0  0  0  0  0  0  0
    1.8171   -0.1746    0.0000 C   0  0  0  0  0  0  0  0  0  0  0  0
    3.1371   -0.9146    0.0000 C   0  0  0  0  0  0  0  0  0  0  0  0
    4.5771   -0.4846    0.0000 C   0  0  0  0  0  0  0  0  0  0  0  0
    5.3971   -1.6546    0.0000 C   0  0  0  0  0  0  0  0  0  0  0  0
    4.5771   -2.8946    0.0000 C   0  0  0  0  0  0  0  0  0  0  0  0
    3.1371   -2.3946    0.0000 C   0  0  0  0  0  0  0  0  0  0  0  0
    1.8171   -3.2146    0.0000 C   0  0  0  0  0  0  0  0  0  0  0  0
    1.8171   -4.7246    0.0000 C   0  0  0  0  0  0  0  0  0  0  0  0
    0.5771   -5.4246    0.0000 C   0  0  0  0  0  0  0  0  0  0  0  0
    7.1511    0.9359    0.0000 C   0  0  0  0  0  0  0  0  0  0  0  0
    3.9968    0.8987    0.0000 O   0  0  0  0  0  0  0  0  0  0  0  0
    3.4610    2.0076    0.0000 C   0  0  0  0  0  0  0  0  0  0  0  0
   -0.3624   -1.2641    0.0000 C   0  0  0  0  0  0  0  0  0  0  0  0
   -4.7929   -2.7046    0.0000 C   0  0  0  0  0  0  0  0  0  0  0  0
   -5.6029   -3.9446    0.0000 N   0  0  0  0  0  0  0  0  0  0  0  0
   -4.7929   -5.1546    0.0000 N   0  0  0  0  0  0  0  0  0  0  0  0
   -5.2731   -1.2835    0.0000 O   0  0  0  0  0  0  0  0  0  0  0  0
  1  2  1  0
  2  3  1  0
  3  4  2  0
  4  5  1  0
  5  6  1  0
  1  6  1  0
  6  7  1  0
  7  8  1  0
  8  9  1  0
  9 10  1  0
 10 11  1  0
 11 12  1  0
 12 13  1  0
 13 14  1  0
 10 14  1  0
 14 15  1  0
  7 15  1  0
 15 16  1  0
 16 17  1  0
  1 17  1  0
 11 18  1  6
 11 19  1  0
 10 20  1  1
  6 21  1  1
  4 22  1  0
 22 23  1  0
 23 24  1  0
  3 24  1  0
 22 25  2  0
M  END
>  <cdk:Title>  (706) 
3'-Hydroxystanozolol

>  <1A2>  (706) 
N

>  <2A6>  (706) 
N

>  <2B6>  (706) 
N

>  <2C8>  (706) 
N

>  <2C9>  (706) 
N

>  <2C19>  (706) 
N

>  <2D6>  (706) 
N

>  <2E1>  (706) 
N

>  <3A4>  (706) 
N

>  <Citation>  (706) 
Nucleic Acids Res. 2018. Jan 4;46(D1):D608-17. PMID:29140435
Nucleic Acids Res. 2018 Jan 4;46(D1):D1074-D1082. PMID:29126136
Nucleic Acids Res., 45:D380-388 (2017).  PMID:27924025
Nucleic Acids Res. 2016 Jan 4;44(D1):D1202-13. PMID:26400175

>  <ROMol>  (706) 
<rdkit.Chem.rdchem.Mol object at 0x7c2905dc76f0>

>  <Drug_like>  (706) 
True

$$$$
61229-18-3
     RDKit          2D

 33 37  0  0  0  0  0  0  0  0999 V2000
    3.2899    9.2758    0.0000 C   0  0  0  0  0  0  0  0  0  0  0  0
    1.9871    8.5323    0.0000 C   0  0  0  0  0  0  0  0  0  0  0  0
    0.6918    9.2887    0.0000 C   0  0  0  0  0  0  0  0  0  0  0  0
    1.9748    6.0723    0.0000 C   0  0  0  0  0  0  0  0  0  0  0  0
    3.4748    6.2223    0.0000 C   0  0  0  0  0  0  0  0  0  0  0  0
    4.0748    4.8423    0.0000 C   0  0  0  0  0  0  0  0  0  0  0  0
    2.9448    3.8423    0.0000 C   0  0  0  0  0  0  0  0  0  0  0  0
    5.1878    2.8321    0.0000 C   0  0  0  0  0  0  0  0  0  0  0  0
    6.4051    3.7085    0.0000 O   0  0  0  0  0  0  0  0  0  0  0  0
    2.9448    2.3323    0.0000 C   0  0  0  0  0  0  0  0  0  0  0  0
    1.6348    1.5923    0.0000 C   0  0  0  0  0  0  0  0  0  0  0  0
    0.3348    2.3523    0.0000 C   0  0  0  0  0  0  0  0  0  0  0  0
   -0.1792   -0.5424    0.0000 C   0  0  0  0  0  0  0  0  0  0  0  0
    0.3448    3.8523    0.0000 C   0  0  0  0  0  0  0  0  0  0  0  0
   -0.9552    4.6123    0.0000 C   0  0  0  0  0  0  0  0  0  0  0  0
   -2.2552    3.8523    0.0000 C   0  0  0  0  0  0  0  0  0  0  0  0
   -2.2552    2.3523    0.0000 C   0  0  0  0  0  0  0  0  0  0  0  0
   -3.5352    1.6023    0.0000 C   0  0  0  0  0  0  0  0  0  0  0  0
   -3.5451    4.5423    0.0000 C   0  0  0  0  0  0  0  0  0  0  0  0
   -4.8352    2.3523    0.0000 C   0  0  0  0  0  0  0  0  0  0  0  0
   -6.1252    1.6023    0.0000 C   0  0  0  0  0  0  0  0  0  0  0  0
   -6.1252    0.1123    0.0000 C   0  0  0  0  0  0  0  0  0  0  0  0
   -4.8352   -0.6377    0.0000 C   0  0  0  0  0  0  0  0  0  0  0  0
   -6.4184   -2.5206    0.0000 C   0  0  0  0  0  0  0  0  0  0  0  0
   -3.9915   -2.9485    0.0000 C   0  0  0  0  0  0  0  0  0  0  0  0
   -3.5452    0.1123    0.0000 C   0  0  0  0  0  0  0  0  0  0  0  0
   -2.2452   -0.6377    0.0000 C   0  0  0  0  0  0  0  0  0  0  0  0
   -0.9552    0.1123    0.0000 C   0  0  0  0  0  0  0  0  0  0  0  0
   -0.9552    1.6023    0.0000 C   0  0  0  0  0  0  0  0  0  0  0  0
    0.9380   -0.6470    0.0000 C   0  0  0  0  0  0  0  0  0  0  0  0
   -7.6021    0.3743    0.0000 O   0  0  0  0  0  0  0  0  0  0  0  0
    1.6548    4.6023    0.0000 C   0  0  0  0  0  0  0  0  0  0  0  0
    3.4490    0.9196    0.0000 O   0  0  0  0  0  0  0  0  0  0  0  0
  1  2  2  0
  2  3  1  0
  2  4  1  0
  4  5  1  0
  5  6  1  0
  6  7  1  0
  7  8  1  1
  8  9  1  0
  7 10  1  0
 10 11  1  0
 11 12  1  0
 12 13  1  6
 12 14  1  0
 14 15  1  0
 15 16  1  0
 16 17  1  0
 17 18  1  0
 18 19  1  1
 18 20  1  0
 20 21  1  0
 21 22  1  0
 22 23  1  0
 23 24  1  0
 23 25  1  0
 23 26  1  0
 18 26  1  0
 26 27  1  0
 27 28  1  0
 28 29  1  0
 17 29  1  0
 12 29  1  0
 29 30  1  1
 22 31  1  0
 14 32  1  0
  4 32  1  0
  7 32  1  0
 10 33  1  0
M  END
>  <cdk:Title>  (707) 
61229-18-3

>  <1A2>  (707) 
N

>  <2A6>  (707) 
N

>  <2B6>  (707) 
N

>  <2C8>  (707) 
N

>  <2C9>  (707) 
N

>  <2C19>  (707) 
N

>  <2D6>  (707) 
N

>  <2E1>  (707) 
N

>  <3A4>  (707) 
N

>  <Citation>  (707) 
Nucleic Acids Res. 2018. Jan 4;46(D1):D608-17. PMID:29140435
Nucleic Acids Res. 2018 Jan 4;46(D1):D1074-D1082. PMID:29126136
Nucleic Acids Res., 45:D380-388 (2017).  PMID:27924025
Nucleic Acids Res. 2016 Jan 4;44(D1):D1202-13. PMID:26400175

>  <ROMol>  (707) 
<rdkit.Chem.rdchem.Mol object at 0x7c2905dc77d0>

>  <Drug_like>  (707) 
True

$$$$
Cabreuvin
     RDKit          2D

 23 25  0  0  0  0  0  0  0  0999 V2000
   -5.1981    0.7504    0.0000 C   0  0  0  0  0  0  0  0  0  0  0  0
   -3.8989    1.5002    0.0000 O   0  0  0  0  0  0  0  0  0  0  0  0
   -2.6000    0.7500    0.0000 C   0  0  0  0  0  0  0  0  0  0  0  0
   -2.6000   -0.7500    0.0000 C   0  0  0  0  0  0  0  0  0  0  0  0
   -1.3000   -1.5000    0.0000 C   0  0  0  0  0  0  0  0  0  0  0  0
    0.0000   -0.7500    0.0000 C   0  0  0  0  0  0  0  0  0  0  0  0
    0.0000    0.7500    0.0000 C   0  0  0  0  0  0  0  0  0  0  0  0
   -1.3000    1.5000    0.0000 C   0  0  0  0  0  0  0  0  0  0  0  0
    1.3000    1.5000    0.0000 O   0  0  0  0  0  0  0  0  0  0  0  0
    2.6000    0.7500    0.0000 C   0  0  0  0  0  0  0  0  0  0  0  0
    2.6000   -0.7500    0.0000 C   0  0  0  0  0  0  0  0  0  0  0  0
    3.8989   -1.5002    0.0000 C   0  0  0  0  0  0  0  0  0  0  0  0
    3.8982   -3.0010    0.0000 C   0  0  0  0  0  0  0  0  0  0  0  0
    5.1971   -3.7512    0.0000 C   0  0  0  0  0  0  0  0  0  0  0  0
    6.4968   -3.0006    0.0000 C   0  0  0  0  0  0  0  0  0  0  0  0
    6.4975   -1.4998    0.0000 C   0  0  0  0  0  0  0  0  0  0  0  0
    5.1986   -0.7496    0.0000 C   0  0  0  0  0  0  0  0  0  0  0  0
    7.7968   -0.7502    0.0000 O   0  0  0  0  0  0  0  0  0  0  0  0
    7.7972    0.7498    0.0000 C   0  0  0  0  0  0  0  0  0  0  0  0
    7.7957   -3.7508    0.0000 O   0  0  0  0  0  0  0  0  0  0  0  0
    9.0948   -3.0010    0.0000 C   0  0  0  0  0  0  0  0  0  0  0  0
    1.3000   -1.5000    0.0000 C   0  0  0  0  0  0  0  0  0  0  0  0
    1.3000   -3.0000    0.0000 O   0  0  0  0  0  0  0  0  0  0  0  0
  1  2  1  0
  2  3  1  0
  3  4  2  0
  4  5  1  0
  5  6  2  0
  6  7  1  0
  7  8  2  0
  3  8  1  0
  7  9  1  0
  9 10  1  0
 10 11  2  0
 11 12  1  0
 12 13  2  0
 13 14  1  0
 14 15  2  0
 15 16  1  0
 16 17  2  0
 12 17  1  0
 16 18  1  0
 18 19  1  0
 15 20  1  0
 20 21  1  0
 11 22  1  0
  6 22  1  0
 22 23  2  0
M  END
>  <cdk:Title>  (708) 
Cabreuvin

>  <1A2>  (708) 
N

>  <2A6>  (708) 
N

>  <2B6>  (708) 
N

>  <2C8>  (708) 
N

>  <2C9>  (708) 
N

>  <2C19>  (708) 
N

>  <2D6>  (708) 
N

>  <2E1>  (708) 
N

>  <3A4>  (708) 
N

>  <Citation>  (708) 
Nucleic Acids Res. 2018. Jan 4;46(D1):D608-17. PMID:29140435
Nucleic Acids Res. 2018 Jan 4;46(D1):D1074-D1082. PMID:29126136
Nucleic Acids Res., 45:D380-388 (2017).  PMID:27924025
Nucleic Acids Res. 2016 Jan 4;44(D1):D1202-13. PMID:26400175

>  <ROMol>  (708) 
<rdkit.Chem.rdchem.Mol object at 0x7c2905dc7840>

>  <Drug_like>  (708) 
True

$$$$
2-Deoxyribonic acid
     RDKit          2D

 10  9  0  0  0  0  0  0  0  0999 V2000
    6.9917    1.1491    0.0000 O   0  0  0  0  0  0  0  0  0  0  0  0
    6.0275   -0.0000    0.0000 C   0  0  0  0  0  0  0  0  0  0  0  0
    4.3128   -0.9900    0.0000 C   0  0  0  0  0  0  0  0  0  0  0  0
    2.5981   -0.0000    0.0000 C   0  0  0  0  0  0  0  0  0  0  0  0
    1.2990   -0.7500    0.0000 O   0  0  0  0  0  0  0  0  0  0  0  0
    3.3486   -2.1391    0.0000 O   0  0  0  0  0  0  0  0  0  0  0  0
    7.3266   -0.7500    0.0000 C   0  0  0  0  0  0  0  0  0  0  0  0
    8.6256   -0.0000    0.0000 C   0  0  0  0  0  0  0  0  0  0  0  0
    9.9247   -0.7500    0.0000 O   0  0  0  0  0  0  0  0  0  0  0  0
    8.6256    1.5000    0.0000 O   0  0  0  0  0  0  0  0  0  0  0  0
  1  2  1  0
  2  3  1  0
  3  4  1  0
  4  5  1  0
  3  6  1  0
  2  7  1  0
  7  8  1  0
  8  9  1  0
  8 10  2  0
M  END
>  <cdk:Title>  (709) 
2-Deoxyribonic acid

>  <1A2>  (709) 
N

>  <2A6>  (709) 
N

>  <2B6>  (709) 
N

>  <2C8>  (709) 
N

>  <2C9>  (709) 
N

>  <2C19>  (709) 
N

>  <2D6>  (709) 
N

>  <2E1>  (709) 
N

>  <3A4>  (709) 
N

>  <Citation>  (709) 
Nucleic Acids Res. 2018. Jan 4;46(D1):D608-17. PMID:29140435
Nucleic Acids Res. 2018 Jan 4;46(D1):D1074-D1082. PMID:29126136
Nucleic Acids Res., 45:D380-388 (2017).  PMID:27924025
Nucleic Acids Res. 2016 Jan 4;44(D1):D1202-13. PMID:26400175

>  <ROMol>  (709) 
<rdkit.Chem.rdchem.Mol object at 0x7c2905dc7920>

>  <Drug_like>  (709) 
True

$$$$
UNII-9BZN2JVQ2E
     RDKit          2D

 13 12  0  0  0  0  0  0  0  0999 V2000
    0.5196    1.7400    0.0000 C   0  0  0  0  0  0  0  0  0  0  0  0
    0.5196    0.2400    0.0000 C   0  0  0  0  0  0  0  0  0  0  0  0
   -0.7794   -0.5100    0.0000 C   0  0  0  0  0  0  0  0  0  0  0  0
    1.8187   -0.5100    0.0000 C   0  0  0  0  0  0  0  0  0  0  0  0
    3.1177    0.2400    0.0000 C   0  0  0  0  0  0  0  0  0  0  0  0
    4.8324   -0.7500    0.0000 C   0  0  0  0  0  0  0  0  0  0  0  0
    6.5472    0.2400    0.0000 C   0  0  0  0  0  0  0  0  0  0  0  0
    7.5113    1.3891    0.0000 C   0  0  0  0  0  0  0  0  0  0  0  0
    9.0933   -1.2300    0.0000 C   0  0  0  0  0  0  0  0  0  0  0  0
   11.2237   -0.0000    0.0000 C   0  0  0  0  0  0  0  0  0  0  0  0
   12.5227   -0.7500    0.0000 O   0  0  0  0  0  0  0  0  0  0  0  0
   13.8218   -0.0000    0.0000 C   0  0  0  0  0  0  0  0  0  0  0  0
   15.1208   -0.7500    0.0000 O   0  0  0  0  0  0  0  0  0  0  0  0
  1  2  2  0
  2  3  1  0
  2  4  1  0
  4  5  1  0
  5  6  1  0
  6  7  1  0
  7  8  1  0
  7  9  1  0
  9 10  1  0
 10 11  1  0
 11 12  1  0
 12 13  2  0
M  END
>  <cdk:Title>  (710) 
UNII-9BZN2JVQ2E

>  <1A2>  (710) 
N

>  <2A6>  (710) 
N

>  <2B6>  (710) 
N

>  <2C8>  (710) 
N

>  <2C9>  (710) 
N

>  <2C19>  (710) 
N

>  <2D6>  (710) 
N

>  <2E1>  (710) 
N

>  <3A4>  (710) 
N

>  <Citation>  (710) 
Nucleic Acids Res. 2018. Jan 4;46(D1):D608-17. PMID:29140435
Nucleic Acids Res. 2018 Jan 4;46(D1):D1074-D1082. PMID:29126136
Nucleic Acids Res., 45:D380-388 (2017).  PMID:27924025
Nucleic Acids Res. 2016 Jan 4;44(D1):D1202-13. PMID:26400175

>  <ROMol>  (710) 
<rdkit.Chem.rdchem.Mol object at 0x7c2905dc7a00>

>  <Drug_like>  (710) 
True

$$$$
DIHYDROKAWAIN
     RDKit          2D

 17 18  0  0  0  0  0  0  0  0999 V2000
   -7.5292    3.3055    0.0000 C   0  0  0  0  0  0  0  0  0  0  0  0
   -6.3803    4.2699    0.0000 O   0  0  0  0  0  0  0  0  0  0  0  0
   -4.9707    3.7572    0.0000 C   0  0  0  0  0  0  0  0  0  0  0  0
   -3.8215    4.7225    0.0000 C   0  0  0  0  0  0  0  0  0  0  0  0
   -2.4118    4.2098    0.0000 C   0  0  0  0  0  0  0  0  0  0  0  0
   -0.4318    4.2098    0.0000 C   0  0  0  0  0  0  0  0  0  0  0  0
    0.3182    5.5088    0.0000 C   0  0  0  0  0  0  0  0  0  0  0  0
    1.8182    5.5088    0.0000 C   0  0  0  0  0  0  0  0  0  0  0  0
    2.5682    6.8088    0.0000 C   0  0  0  0  0  0  0  0  0  0  0  0
    4.0682    6.8088    0.0000 C   0  0  0  0  0  0  0  0  0  0  0  0
    4.8182    5.5088    0.0000 C   0  0  0  0  0  0  0  0  0  0  0  0
    4.0682    4.2088    0.0000 C   0  0  0  0  0  0  0  0  0  0  0  0
    2.5682    4.2088    0.0000 C   0  0  0  0  0  0  0  0  0  0  0  0
   -2.1514    2.7317    0.0000 O   0  0  0  0  0  0  0  0  0  0  0  0
   -3.3005    1.7664    0.0000 C   0  0  0  0  0  0  0  0  0  0  0  0
   -4.7102    2.2791    0.0000 C   0  0  0  0  0  0  0  0  0  0  0  0
   -3.0395    0.2893    0.0000 O   0  0  0  0  0  0  0  0  0  0  0  0
  1  2  1  0
  2  3  1  0
  3  4  1  0
  4  5  1  0
  5  6  1  0
  6  7  1  0
  7  8  1  0
  8  9  2  0
  9 10  1  0
 10 11  2  0
 11 12  1  0
 12 13  2  0
  8 13  1  0
  5 14  1  0
 14 15  1  0
 15 16  1  0
  3 16  2  0
 15 17  2  0
M  END
>  <cdk:Title>  (711) 
DIHYDROKAWAIN

>  <1A2>  (711) 
N

>  <2A6>  (711) 
N

>  <2B6>  (711) 
N

>  <2C8>  (711) 
N

>  <2C9>  (711) 
N

>  <2C19>  (711) 
N

>  <2D6>  (711) 
N

>  <2E1>  (711) 
N

>  <3A4>  (711) 
N

>  <Citation>  (711) 
Nucleic Acids Res. 2018. Jan 4;46(D1):D608-17. PMID:29140435
Nucleic Acids Res. 2018 Jan 4;46(D1):D1074-D1082. PMID:29126136
Nucleic Acids Res., 45:D380-388 (2017).  PMID:27924025
Nucleic Acids Res. 2016 Jan 4;44(D1):D1202-13. PMID:26400175

>  <ROMol>  (711) 
<rdkit.Chem.rdchem.Mol object at 0x7c2905dc7a70>

>  <Drug_like>  (711) 
True

$$$$
Artocarbene
     RDKit          2D

 23 25  0  0  0  0  0  0  0  0999 V2000
  -14.4735    0.4927    0.0000 C   0  0  0  0  0  0  0  0  0  0  0  0
  -12.9962    0.7525    0.0000 C   0  0  0  0  0  0  0  0  0  0  0  0
  -13.5084    2.1623    0.0000 C   0  0  0  0  0  0  0  0  0  0  0  0
  -12.9966   -0.7475    0.0000 C   0  0  0  0  0  0  0  0  0  0  0  0
  -11.6969   -1.4979    0.0000 C   0  0  0  0  0  0  0  0  0  0  0  0
  -10.3966   -0.7483    0.0000 C   0  0  0  0  0  0  0  0  0  0  0  0
   -9.0969   -1.4988    0.0000 C   0  0  0  0  0  0  0  0  0  0  0  0
   -7.7966   -0.7492    0.0000 C   0  0  0  0  0  0  0  0  0  0  0  0
   -7.7962    0.7508    0.0000 C   0  0  0  0  0  0  0  0  0  0  0  0
   -6.0813    1.7406    0.0000 C   0  0  0  0  0  0  0  0  0  0  0  0
   -4.3667    0.7503    0.0000 C   0  0  0  0  0  0  0  0  0  0  0  0
   -4.3669   -0.7497    0.0000 C   0  0  0  0  0  0  0  0  0  0  0  0
   -5.6667   -1.5001    0.0000 C   0  0  0  0  0  0  0  0  0  0  0  0
   -5.6677   -3.0010    0.0000 C   0  0  0  0  0  0  0  0  0  0  0  0
   -4.3689   -3.7514    0.0000 C   0  0  0  0  0  0  0  0  0  0  0  0
   -3.0691   -3.0010    0.0000 C   0  0  0  0  0  0  0  0  0  0  0  0
   -3.0681   -1.5001    0.0000 C   0  0  0  0  0  0  0  0  0  0  0  0
   -1.7687   -0.7508    0.0000 O   0  0  0  0  0  0  0  0  0  0  0  0
   -4.3691   -5.2514    0.0000 O   0  0  0  0  0  0  0  0  0  0  0  0
   -9.0959    1.5012    0.0000 C   0  0  0  0  0  0  0  0  0  0  0  0
  -10.3962    0.7517    0.0000 C   0  0  0  0  0  0  0  0  0  0  0  0
  -11.6959    1.5021    0.0000 O   0  0  0  0  0  0  0  0  0  0  0  0
   -9.0974   -2.9988    0.0000 O   0  0  0  0  0  0  0  0  0  0  0  0
  1  2  1  0
  2  3  1  0
  2  4  1  0
  4  5  2  0
  5  6  1  0
  6  7  2  0
  7  8  1  0
  8  9  2  0
  9 10  1  0
 10 11  2  0
 11 12  1  0
 12 13  2  0
 13 14  1  0
 14 15  2  0
 15 16  1  0
 16 17  2  0
 12 17  1  0
 17 18  1  0
 15 19  1  0
  9 20  1  0
 20 21  2  0
  6 21  1  0
 21 22  1  0
  2 22  1  0
  7 23  1  0
M  END
>  <cdk:Title>  (712) 
Artocarbene

>  <1A2>  (712) 
N

>  <2A6>  (712) 
N

>  <2B6>  (712) 
N

>  <2C8>  (712) 
N

>  <2C9>  (712) 
N

>  <2C19>  (712) 
N

>  <2D6>  (712) 
N

>  <2E1>  (712) 
N

>  <3A4>  (712) 
N

>  <Citation>  (712) 
Nucleic Acids Res. 2018. Jan 4;46(D1):D608-17. PMID:29140435
Nucleic Acids Res. 2018 Jan 4;46(D1):D1074-D1082. PMID:29126136
Nucleic Acids Res., 45:D380-388 (2017).  PMID:27924025
Nucleic Acids Res. 2016 Jan 4;44(D1):D1202-13. PMID:26400175

>  <ROMol>  (712) 
<rdkit.Chem.rdchem.Mol object at 0x7c2905dc7ae0>

>  <Drug_like>  (712) 
True

$$$$
Isoceanothic acid
     RDKit          2D

 35 39  0  0  0  0  0  0  0  0999 V2000
    0.9282    1.1428    0.0000 C   0  0  0  0  0  0  0  0  0  0  0  0
    2.2272    1.8928    0.0000 C   0  0  0  0  0  0  0  0  0  0  0  0
    3.5262    1.1428    0.0000 C   0  0  0  0  0  0  0  0  0  0  0  0
    3.5262   -0.3572    0.0000 C   0  0  0  0  0  0  0  0  0  0  0  0
    4.8253   -1.1072    0.0000 C   0  0  0  0  0  0  0  0  0  0  0  0
    6.2519   -0.6436    0.0000 C   0  0  0  0  0  0  0  0  0  0  0  0
    7.1335   -1.8572    0.0000 C   0  0  0  0  0  0  0  0  0  0  0  0
    6.2519   -3.0707    0.0000 C   0  0  0  0  0  0  0  0  0  0  0  0
    4.8253   -2.6072    0.0000 C   0  0  0  0  0  0  0  0  0  0  0  0
    3.5262   -3.3572    0.0000 C   0  0  0  0  0  0  0  0  0  0  0  0
    2.2272   -2.6072    0.0000 C   0  0  0  0  0  0  0  0  0  0  0  0
    2.2272   -1.1072    0.0000 C   0  0  0  0  0  0  0  0  0  0  0  0
    0.9282   -0.3572    0.0000 C   0  0  0  0  0  0  0  0  0  0  0  0
   -0.3709   -1.1072    0.0000 C   0  0  0  0  0  0  0  0  0  0  0  0
   -1.6699   -0.3572    0.0000 C   0  0  0  0  0  0  0  0  0  0  0  0
   -1.6699    1.1428    0.0000 C   0  0  0  0  0  0  0  0  0  0  0  0
   -0.3709    1.8928    0.0000 C   0  0  0  0  0  0  0  0  0  0  0  0
    2.0076    3.6209    0.0000 C   0  0  0  0  0  0  0  0  0  0  0  0
   -0.6828    3.3601    0.0000 C   0  0  0  0  0  0  0  0  0  0  0  0
    0.8090    3.5169    0.0000 C   0  0  0  0  0  0  0  0  0  0  0  0
    2.0048    6.2027    0.0000 O   0  0  0  0  0  0  0  0  0  0  0  0
    1.6907    2.3033    0.0000 O   0  0  0  0  0  0  0  0  0  0  0  0
   -2.1745    3.5169    0.0000 C   0  0  0  0  0  0  0  0  0  0  0  0
   -2.7846    2.1465    0.0000 C   0  0  0  0  0  0  0  0  0  0  0  0
   -4.9151    3.3765    0.0000 C   0  0  0  0  0  0  0  0  0  0  0  0
   -3.6663    0.9330    0.0000 C   0  0  0  0  0  0  0  0  0  0  0  0
   -1.8627    4.9841    0.0000 O   0  0  0  0  0  0  0  0  0  0  0  0
    0.4176   -3.2525    0.0000 C   0  0  0  0  0  0  0  0  0  0  0  0
   -0.3189   -2.5772    0.0000 C   0  0  0  0  0  0  0  0  0  0  0  0
    5.0824   -5.0537    0.0000 C   0  0  0  0  0  0  0  0  0  0  0  0
    3.8689   -5.9354    0.0000 O   0  0  0  0  0  0  0  0  0  0  0  0
    6.4527   -5.6638    0.0000 O   0  0  0  0  0  0  0  0  0  0  0  0
    7.9666    0.3464    0.0000 C   0  0  0  0  0  0  0  0  0  0  0  0
    9.2656   -0.4036    0.0000 C   0  0  0  0  0  0  0  0  0  0  0  0
    7.9666    1.8464    0.0000 C   0  0  0  0  0  0  0  0  0  0  0  0
  1  2  1  0
  2  3  1  0
  3  4  1  0
  4  5  1  0
  5  6  1  0
  6  7  1  0
  7  8  1  0
  8  9  1  0
  5  9  1  0
  9 10  1  0
 10 11  1  0
 11 12  1  0
  4 12  1  0
 12 13  1  0
  1 13  1  0
 13 14  1  0
 14 15  1  0
 15 16  1  0
 16 17  1  0
  1 17  1  0
 17 18  1  1
 17 19  1  0
 19 20  1  0
 20 21  1  0
 20 22  2  0
 19 23  1  0
 23 24  1  0
 16 24  1  0
 24 25  1  0
 24 26  1  0
 23 27  1  0
 13 28  1  1
 12 29  1  6
  9 30  1  1
 30 31  2  0
 30 32  1  0
  6 33  1  0
 33 34  2  0
 33 35  1  0
M  END
>  <cdk:Title>  (713) 
Isoceanothic acid

>  <1A2>  (713) 
N

>  <2A6>  (713) 
N

>  <2B6>  (713) 
N

>  <2C8>  (713) 
N

>  <2C9>  (713) 
N

>  <2C19>  (713) 
N

>  <2D6>  (713) 
N

>  <2E1>  (713) 
N

>  <3A4>  (713) 
N

>  <Citation>  (713) 
Nucleic Acids Res. 2018. Jan 4;46(D1):D608-17. PMID:29140435
Nucleic Acids Res. 2018 Jan 4;46(D1):D1074-D1082. PMID:29126136
Nucleic Acids Res., 45:D380-388 (2017).  PMID:27924025
Nucleic Acids Res. 2016 Jan 4;44(D1):D1202-13. PMID:26400175

>  <ROMol>  (713) 
<rdkit.Chem.rdchem.Mol object at 0x7c2905dc7c30>

>  <Drug_like>  (713) 
True

$$$$
Gentisic acid
     RDKit          2D

 11 11  0  0  0  0  0  0  0  0999 V2000
   -0.2908   -1.6702    0.0000 C   0  0  0  0  0  0  0  0  0  0  0  0
    1.0081   -0.9200    0.0000 C   0  0  0  0  0  0  0  0  0  0  0  0
    2.3081   -1.6700    0.0000 C   0  0  0  0  0  0  0  0  0  0  0  0
    2.3081   -3.1700    0.0000 O   0  0  0  0  0  0  0  0  0  0  0  0
    3.6081   -0.9200    0.0000 C   0  0  0  0  0  0  0  0  0  0  0  0
    3.6081    0.5800    0.0000 C   0  0  0  0  0  0  0  0  0  0  0  0
    2.3081    1.3300    0.0000 C   0  0  0  0  0  0  0  0  0  0  0  0
    2.3081    2.8300    0.0000 O   0  0  0  0  0  0  0  0  0  0  0  0
    1.0081    0.5800    0.0000 C   0  0  0  0  0  0  0  0  0  0  0  0
   -0.2906   -3.1702    0.0000 O   0  0  0  0  0  0  0  0  0  0  0  0
   -1.5900   -0.9204    0.0000 O   0  0  0  0  0  0  0  0  0  0  0  0
  1  2  1  0
  2  3  2  0
  3  4  1  0
  3  5  1  0
  5  6  2  0
  6  7  1  0
  7  8  1  0
  7  9  2  0
  2  9  1  0
  1 10  2  0
  1 11  1  0
M  END
>  <cdk:Title>  (714) 
Gentisic acid

>  <1A2>  (714) 
N

>  <2A6>  (714) 
N

>  <2B6>  (714) 
N

>  <2C8>  (714) 
N

>  <2C9>  (714) 
N

>  <2C19>  (714) 
N

>  <2D6>  (714) 
N

>  <2E1>  (714) 
N

>  <3A4>  (714) 
N

>  <Citation>  (714) 
Nucleic Acids Res. 2018. Jan 4;46(D1):D608-17. PMID:29140435
Nucleic Acids Res. 2018 Jan 4;46(D1):D1074-D1082. PMID:29126136
Nucleic Acids Res., 45:D380-388 (2017).  PMID:27924025
Nucleic Acids Res. 2016 Jan 4;44(D1):D1202-13. PMID:26400175

>  <ROMol>  (714) 
<rdkit.Chem.rdchem.Mol object at 0x7c2905dc7d80>

>  <Drug_like>  (714) 
True

$$$$
2_2_7_7-Tetramethyl-1_6-dioxaspiro[4.4]nona-3_8-diene
     RDKit          2D

 13 14  0  0  0  0  0  0  0  0999 V2000
   -4.9284    2.9672    0.0000 C   0  0  0  0  0  0  0  0  0  0  0  0
   -4.6165    1.5000    0.0000 C   0  0  0  0  0  0  0  0  0  0  0  0
   -6.1083    1.3432    0.0000 C   0  0  0  0  0  0  0  0  0  0  0  0
   -4.6165    0.0000    0.0000 C   0  0  0  0  0  0  0  0  0  0  0  0
   -3.1899   -0.4635    0.0000 C   0  0  0  0  0  0  0  0  0  0  0  0
   -2.3083    0.7500    0.0000 C   0  0  0  0  0  0  0  0  0  0  0  0
   -1.4266    1.9635    0.0000 C   0  0  0  0  0  0  0  0  0  0  0  0
    0.0000    1.5000    0.0000 C   0  0  0  0  0  0  0  0  0  0  0  0
    0.0000   -0.0000    0.0000 C   0  0  0  0  0  0  0  0  0  0  0  0
    0.3119   -1.4672    0.0000 C   0  0  0  0  0  0  0  0  0  0  0  0
    1.4918    0.1568    0.0000 C   0  0  0  0  0  0  0  0  0  0  0  0
   -1.4266   -0.4635    0.0000 O   0  0  0  0  0  0  0  0  0  0  0  0
   -3.1899    1.9635    0.0000 O   0  0  0  0  0  0  0  0  0  0  0  0
  1  2  1  0
  2  3  1  0
  2  4  1  0
  4  5  2  0
  5  6  1  0
  6  7  1  0
  7  8  2  0
  8  9  1  0
  9 10  1  0
  9 11  1  0
  9 12  1  0
  6 12  1  0
  6 13  1  0
  2 13  1  0
M  END
>  <cdk:Title>  (715) 
2_2_7_7-Tetramethyl-1_6-dioxaspiro[4.4]nona-3_8-diene

>  <1A2>  (715) 
N

>  <2A6>  (715) 
N

>  <2B6>  (715) 
N

>  <2C8>  (715) 
N

>  <2C9>  (715) 
N

>  <2C19>  (715) 
N

>  <2D6>  (715) 
N

>  <2E1>  (715) 
N

>  <3A4>  (715) 
N

>  <Citation>  (715) 
Nucleic Acids Res. 2018. Jan 4;46(D1):D608-17. PMID:29140435
Nucleic Acids Res. 2018 Jan 4;46(D1):D1074-D1082. PMID:29126136
Nucleic Acids Res., 45:D380-388 (2017).  PMID:27924025
Nucleic Acids Res. 2016 Jan 4;44(D1):D1202-13. PMID:26400175

>  <ROMol>  (715) 
<rdkit.Chem.rdchem.Mol object at 0x7c2905dc7df0>

>  <Drug_like>  (715) 
True

$$$$
5-Isopropenyl-2-methyl-2-vinyltetrahydrofuran_ (Z)-
     RDKit          2D

 11 11  0  0  0  0  0  0  0  0999 V2000
    1.2903   -1.6145    0.0000 C   0  0  0  0  0  0  0  0  0  0  0  0
    2.5893   -0.8644    0.0000 C   0  0  0  0  0  0  0  0  0  0  0  0
    2.5893    0.6356    0.0000 C   0  0  0  0  0  0  0  0  0  0  0  0
    5.0357    0.3774    0.0000 C   0  0  0  0  0  0  0  0  0  0  0  0
    2.9009    2.0953    0.0000 C   0  0  0  0  0  0  0  0  0  0  0  0
    1.6019    2.8453    0.0000 C   0  0  0  0  0  0  0  0  0  0  0  0
    0.4849    1.8506    0.0000 C   0  0  0  0  0  0  0  0  0  0  0  0
   -0.6749    3.4553    0.0000 C   0  0  0  0  0  0  0  0  0  0  0  0
   -0.0614    4.8241    0.0000 C   0  0  0  0  0  0  0  0  0  0  0  0
   -2.1671    3.3023    0.0000 C   0  0  0  0  0  0  0  0  0  0  0  0
    1.1014    0.4785    0.0000 O   0  0  0  0  0  0  0  0  0  0  0  0
  1  2  2  0
  3  2  1  0
  3  4  1  1
  3  5  1  0
  5  6  1  0
  6  7  1  0
  7  8  1  0
  8  9  2  0
  8 10  1  0
  7 11  1  0
  3 11  1  0
M  END
>  <cdk:Title>  (716) 
5-Isopropenyl-2-methyl-2-vinyltetrahydrofuran_ (Z)-

>  <1A2>  (716) 
N

>  <2A6>  (716) 
N

>  <2B6>  (716) 
N

>  <2C8>  (716) 
N

>  <2C9>  (716) 
N

>  <2C19>  (716) 
N

>  <2D6>  (716) 
N

>  <2E1>  (716) 
N

>  <3A4>  (716) 
N

>  <Citation>  (716) 
Nucleic Acids Res. 2018. Jan 4;46(D1):D608-17. PMID:29140435
Nucleic Acids Res. 2018 Jan 4;46(D1):D1074-D1082. PMID:29126136
Nucleic Acids Res., 45:D380-388 (2017).  PMID:27924025
Nucleic Acids Res. 2016 Jan 4;44(D1):D1202-13. PMID:26400175

>  <ROMol>  (716) 
<rdkit.Chem.rdchem.Mol object at 0x7c2905dc7f40>

>  <Drug_like>  (716) 
True

$$$$
5_7a-Dihydro-1_4_4_7aalpha-tetramethyl-4H-indene
     RDKit          2D

 13 14  0  0  0  0  0  0  0  0999 V2000
    3.6219   -2.0301    0.0000 C   0  0  0  0  0  0  0  0  0  0  0  0
    2.7100    0.7649    0.0000 C   0  0  0  0  0  0  0  0  0  0  0  0
    3.5900    1.9749    0.0000 C   0  0  0  0  0  0  0  0  0  0  0  0
    2.7100    3.1849    0.0000 C   0  0  0  0  0  0  0  0  0  0  0  0
    1.2800    2.7249    0.0000 C   0  0  0  0  0  0  0  0  0  0  0  0
   -0.0200    3.4749    0.0000 C   0  0  0  0  0  0  0  0  0  0  0  0
    1.2525    4.9918    0.0000 C   0  0  0  0  0  0  0  0  0  0  0  0
   -1.2926    4.9918    0.0000 C   0  0  0  0  0  0  0  0  0  0  0  0
   -1.3200    2.7249    0.0000 C   0  0  0  0  0  0  0  0  0  0  0  0
   -1.3200    1.2249    0.0000 C   0  0  0  0  0  0  0  0  0  0  0  0
   -0.0200    0.4749    0.0000 C   0  0  0  0  0  0  0  0  0  0  0  0
    1.2800    1.2249    0.0000 C   0  0  0  0  0  0  0  0  0  0  0  0
    1.4387   -0.2666    0.0000 C   0  0  0  0  0  0  0  0  0  0  0  0
  1  2  1  0
  2  3  2  0
  3  4  1  0
  4  5  2  0
  5  6  1  0
  6  7  1  0
  6  8  1  0
  6  9  1  0
  9 10  1  0
 10 11  2  0
 11 12  1  0
  2 12  1  0
  5 12  1  0
 12 13  1  1
M  END
>  <cdk:Title>  (717) 
5_7a-Dihydro-1_4_4_7aalpha-tetramethyl-4H-indene

>  <1A2>  (717) 
N

>  <2A6>  (717) 
N

>  <2B6>  (717) 
N

>  <2C8>  (717) 
N

>  <2C9>  (717) 
N

>  <2C19>  (717) 
N

>  <2D6>  (717) 
N

>  <2E1>  (717) 
N

>  <3A4>  (717) 
N

>  <Citation>  (717) 
Nucleic Acids Res. 2018. Jan 4;46(D1):D608-17. PMID:29140435
Nucleic Acids Res. 2018 Jan 4;46(D1):D1074-D1082. PMID:29126136
Nucleic Acids Res., 45:D380-388 (2017).  PMID:27924025
Nucleic Acids Res. 2016 Jan 4;44(D1):D1202-13. PMID:26400175

>  <ROMol>  (717) 
<rdkit.Chem.rdchem.Mol object at 0x7c2905de8120>

>  <Drug_like>  (717) 
True

$$$$
AC1oepov
     RDKit          2D

 22 23  0  0  0  0  0  0  0  0999 V2000
   -1.6321    6.8061    0.0000 C   0  0  0  0  0  0  0  0  0  0  0  0
   -0.1549    6.5457    0.0000 C   0  0  0  0  0  0  0  0  0  0  0  0
    0.3583    5.1363    0.0000 C   0  0  0  0  0  0  0  0  0  0  0  0
    2.9042    6.6065    0.0000 C   0  0  0  0  0  0  0  0  0  0  0  0
   -0.6058    3.9871    0.0000 C   0  0  0  0  0  0  0  0  0  0  0  0
    0.2358    1.6755    0.0000 C   0  0  0  0  0  0  0  0  0  0  0  0
   -1.6537   -0.5768    0.0000 C   0  0  0  0  0  0  0  0  0  0  0  0
   -2.9537   -1.3268    0.0000 C   0  0  0  0  0  0  0  0  0  0  0  0
   -2.9537    1.6132    0.0000 C   0  0  0  0  0  0  0  0  0  0  0  0
   -4.2537   -0.5768    0.0000 C   0  0  0  0  0  0  0  0  0  0  0  0
   -5.5537   -1.3268    0.0000 C   0  0  0  0  0  0  0  0  0  0  0  0
   -5.5537   -2.8268    0.0000 C   0  0  0  0  0  0  0  0  0  0  0  0
   -4.2537   -3.5768    0.0000 C   0  0  0  0  0  0  0  0  0  0  0  0
   -6.1433   -5.8292    0.0000 C   0  0  0  0  0  0  0  0  0  0  0  0
   -3.0239   -5.7074    0.0000 C   0  0  0  0  0  0  0  0  0  0  0  0
   -2.9537   -2.8268    0.0000 C   0  0  0  0  0  0  0  0  0  0  0  0
   -1.6537   -3.5768    0.0000 C   0  0  0  0  0  0  0  0  0  0  0  0
   -0.3537   -2.8268    0.0000 C   0  0  0  0  0  0  0  0  0  0  0  0
   -0.3537   -1.3268    0.0000 C   0  0  0  0  0  0  0  0  0  0  0  0
    2.5417   -1.8370    0.0000 C   0  0  0  0  0  0  0  0  0  0  0  0
    0.1590    0.0828    0.0000 O   0  0  0  0  0  0  0  0  0  0  0  0
    1.3226    3.9873    0.0000 O   0  0  0  0  0  0  0  0  0  0  0  0
  1  2  2  0
  2  3  1  0
  3  4  1  1
  3  5  1  0
  5  6  1  0
  6  7  1  0
  7  8  1  0
  8  9  1  1
  8 10  1  0
 10 11  1  0
 11 12  1  0
 12 13  1  0
 13 14  1  0
 13 15  1  0
 13 16  1  0
  8 16  1  0
 16 17  1  0
 17 18  1  0
 18 19  1  0
  7 19  1  0
 19 20  1  1
 19 21  1  0
  3 22  1  0
M  END
>  <cdk:Title>  (718) 
AC1oepov

>  <1A2>  (718) 
N

>  <2A6>  (718) 
N

>  <2B6>  (718) 
N

>  <2C8>  (718) 
N

>  <2C9>  (718) 
N

>  <2C19>  (718) 
N

>  <2D6>  (718) 
N

>  <2E1>  (718) 
N

>  <3A4>  (718) 
N

>  <Citation>  (718) 
Nucleic Acids Res. 2018. Jan 4;46(D1):D608-17. PMID:29140435
Nucleic Acids Res. 2018 Jan 4;46(D1):D1074-D1082. PMID:29126136
Nucleic Acids Res., 45:D380-388 (2017).  PMID:27924025
Nucleic Acids Res. 2016 Jan 4;44(D1):D1202-13. PMID:26400175

>  <ROMol>  (718) 
<rdkit.Chem.rdchem.Mol object at 0x7c2905de8270>

>  <Drug_like>  (718) 
True

$$$$
gamma-Guaiene
     RDKit          2D

 15 16  0  0  0  0  0  0  0  0999 V2000
   -0.0789   -0.6069    0.0000 C   0  0  0  0  0  0  0  0  0  0  0  0
    1.1005   -1.5456    0.0000 C   0  0  0  0  0  0  0  0  0  0  0  0
    2.5620   -1.2153    0.0000 C   0  0  0  0  0  0  0  0  0  0  0  0
    3.2113    0.1334    0.0000 C   0  0  0  0  0  0  0  0  0  0  0  0
    2.5602    1.4943    0.0000 C   0  0  0  0  0  0  0  0  0  0  0  0
    3.3370    2.7725    0.0000 C   0  0  0  0  0  0  0  0  0  0  0  0
    4.6898    4.2183    0.0000 C   0  0  0  0  0  0  0  0  0  0  0  0
    2.3555    3.9017    0.0000 C   0  0  0  0  0  0  0  0  0  0  0  0
    0.9690    3.3181    0.0000 C   0  0  0  0  0  0  0  0  0  0  0  0
    1.0985    1.8310    0.0000 C   0  0  0  0  0  0  0  0  0  0  0  0
   -0.0727    0.8899    0.0000 C   0  0  0  0  0  0  0  0  0  0  0  0
   -2.0037    0.4523    0.0000 C   0  0  0  0  0  0  0  0  0  0  0  0
    4.3927   -3.5157    0.0000 C   0  0  0  0  0  0  0  0  0  0  0  0
    5.8762   -3.2937    0.0000 C   0  0  0  0  0  0  0  0  0  0  0  0
    2.6528   -4.4609    0.0000 C   0  0  0  0  0  0  0  0  0  0  0  0
  1  2  1  0
  2  3  1  0
  3  4  2  0
  4  5  1  0
  5  6  1  0
  6  7  1  0
  6  8  1  0
  8  9  1  0
  9 10  1  0
  5 10  2  0
 10 11  1  0
  1 11  1  0
 11 12  1  0
  3 13  1  0
 13 14  1  0
 13 15  1  0
M  END
>  <cdk:Title>  (719) 
gamma-Guaiene

>  <1A2>  (719) 
N

>  <2A6>  (719) 
N

>  <2B6>  (719) 
N

>  <2C8>  (719) 
N

>  <2C9>  (719) 
N

>  <2C19>  (719) 
N

>  <2D6>  (719) 
N

>  <2E1>  (719) 
N

>  <3A4>  (719) 
N

>  <Citation>  (719) 
Nucleic Acids Res. 2018. Jan 4;46(D1):D608-17. PMID:29140435
Nucleic Acids Res. 2018 Jan 4;46(D1):D1074-D1082. PMID:29126136
Nucleic Acids Res., 45:D380-388 (2017).  PMID:27924025
Nucleic Acids Res. 2016 Jan 4;44(D1):D1202-13. PMID:26400175

>  <ROMol>  (719) 
<rdkit.Chem.rdchem.Mol object at 0x7c2905de8350>

>  <Drug_like>  (719) 
True

$$$$
Epoxysiderol
     RDKit          2D

 26 30  0  0  0  0  0  0  0  0999 V2000
    0.9812    7.0753    0.0000 C   0  0  0  0  0  0  0  0  0  0  0  0
    0.5678    5.6334    0.0000 C   0  0  0  0  0  0  0  0  0  0  0  0
   -0.8877    5.2705    0.0000 O   0  0  0  0  0  0  0  0  0  0  0  0
    1.6098    4.5544    0.0000 O   0  0  0  0  0  0  0  0  0  0  0  0
    1.1963    3.1125    0.0000 C   0  0  0  0  0  0  0  0  0  0  0  0
    2.6881    2.9557    0.0000 C   0  0  0  0  0  0  0  0  0  0  0  0
    3.2982    1.5854    0.0000 C   0  0  0  0  0  0  0  0  0  0  0  0
    4.7900    1.4286    0.0000 C   0  0  0  0  0  0  0  0  0  0  0  0
    7.6427    2.1398    0.0000 C   0  0  0  0  0  0  0  0  0  0  0  0
    5.4001    0.0583    0.0000 C   0  0  0  0  0  0  0  0  0  0  0  0
    4.5184   -1.1553    0.0000 C   0  0  0  0  0  0  0  0  0  0  0  0
    3.0266   -0.9985    0.0000 C   0  0  0  0  0  0  0  0  0  0  0  0
    2.4165    0.3718    0.0000 C   0  0  0  0  0  0  0  0  0  0  0  0
    0.6884   -2.0067    0.0000 C   0  0  0  0  0  0  0  0  0  0  0  0
    0.9247    0.5286    0.0000 C   0  0  0  0  0  0  0  0  0  0  0  0
   -0.1875   -1.5753    0.0000 C   0  0  0  0  0  0  0  0  0  0  0  0
   -1.8108   -0.8361    0.0000 C   0  0  0  0  0  0  0  0  0  0  0  0
   -2.0594    1.3943    0.0000 C   0  0  0  0  0  0  0  0  0  0  0  0
   -0.6891    0.7842    0.0000 C   0  0  0  0  0  0  0  0  0  0  0  0
    0.3146    1.8990    0.0000 C   0  0  0  0  0  0  0  0  0  0  0  0
   -0.4354    3.1980    0.0000 C   0  0  0  0  0  0  0  0  0  0  0  0
   -1.9026    2.8861    0.0000 C   0  0  0  0  0  0  0  0  0  0  0  0
   -3.3698    3.1980    0.0000 C   0  0  0  0  0  0  0  0  0  0  0  0
   -1.4391    4.3127    0.0000 O   0  0  0  0  0  0  0  0  0  0  0  0
    5.4681    3.7933    0.0000 C   0  0  0  0  0  0  0  0  0  0  0  0
    4.4261    4.8723    0.0000 O   0  0  0  0  0  0  0  0  0  0  0  0
  1  2  1  0
  2  3  2  0
  2  4  1  0
  4  5  1  0
  5  6  1  0
  6  7  1  0
  7  8  1  0
  8  9  1  1
  8 10  1  0
 10 11  1  0
 11 12  1  0
 12 13  1  0
  7 13  1  0
 13 14  1  1
 13 15  1  0
 15 16  1  0
 16 17  1  0
 17 18  1  0
 18 19  1  0
 20 19  1  0
 15 20  1  0
 20  5  1  6
 20 21  1  0
 21 22  1  0
 18 22  1  0
 22 23  1  1
 22 24  1  0
 21 24  1  0
  8 25  1  0
 25 26  1  0
M  END
>  <cdk:Title>  (720) 
Epoxysiderol

>  <1A2>  (720) 
N

>  <2A6>  (720) 
N

>  <2B6>  (720) 
N

>  <2C8>  (720) 
N

>  <2C9>  (720) 
N

>  <2C19>  (720) 
N

>  <2D6>  (720) 
N

>  <2E1>  (720) 
N

>  <3A4>  (720) 
N

>  <Citation>  (720) 
Nucleic Acids Res. 2018. Jan 4;46(D1):D608-17. PMID:29140435
Nucleic Acids Res. 2018 Jan 4;46(D1):D1074-D1082. PMID:29126136
Nucleic Acids Res., 45:D380-388 (2017).  PMID:27924025
Nucleic Acids Res. 2016 Jan 4;44(D1):D1202-13. PMID:26400175

>  <ROMol>  (720) 
<rdkit.Chem.rdchem.Mol object at 0x7c2905de83c0>

>  <Drug_like>  (720) 
True

$$$$
Nepetalactone
     RDKit          2D

 12 13  0  0  0  0  0  0  0  0999 V2000
    2.5612    1.5705    0.0000 C   0  0  0  0  0  0  0  0  0  0  0  0
    2.5612    0.0705    0.0000 C   0  0  0  0  0  0  0  0  0  0  0  0
    3.8612   -0.6795    0.0000 C   0  0  0  0  0  0  0  0  0  0  0  0
    3.8612   -2.1795    0.0000 O   0  0  0  0  0  0  0  0  0  0  0  0
    2.5612   -2.9295    0.0000 C   0  0  0  0  0  0  0  0  0  0  0  0
    1.2612   -2.1795    0.0000 C   0  0  0  0  0  0  0  0  0  0  0  0
   -0.1688   -2.6395    0.0000 C   0  0  0  0  0  0  0  0  0  0  0  0
   -1.8842   -3.6283    0.0000 C   0  0  0  0  0  0  0  0  0  0  0  0
   -1.0488   -1.4295    0.0000 C   0  0  0  0  0  0  0  0  0  0  0  0
   -0.1688   -0.2195    0.0000 C   0  0  0  0  0  0  0  0  0  0  0  0
    1.2612   -0.6795    0.0000 C   0  0  0  0  0  0  0  0  0  0  0  0
    2.5612   -4.4295    0.0000 O   0  0  0  0  0  0  0  0  0  0  0  0
  1  2  1  0
  2  3  2  0
  3  4  1  0
  4  5  1  0
  5  6  1  0
  6  7  1  0
  7  8  1  0
  7  9  1  0
  9 10  1  0
 10 11  1  0
  2 11  1  0
  6 11  1  0
  5 12  2  0
M  END
>  <cdk:Title>  (721) 
Nepetalactone

>  <1A2>  (721) 
N

>  <2A6>  (721) 
N

>  <2B6>  (721) 
N

>  <2C8>  (721) 
N

>  <2C9>  (721) 
N

>  <2C19>  (721) 
N

>  <2D6>  (721) 
N

>  <2E1>  (721) 
N

>  <3A4>  (721) 
N

>  <Citation>  (721) 
Nucleic Acids Res. 2018. Jan 4;46(D1):D608-17. PMID:29140435
Nucleic Acids Res. 2018 Jan 4;46(D1):D1074-D1082. PMID:29126136
Nucleic Acids Res., 45:D380-388 (2017).  PMID:27924025
Nucleic Acids Res. 2016 Jan 4;44(D1):D1202-13. PMID:26400175

>  <ROMol>  (721) 
<rdkit.Chem.rdchem.Mol object at 0x7c2905de8430>

>  <Drug_like>  (721) 
True

$$$$
Ethylphosphate
     RDKit          2D

  7  6  0  0  0  0  0  0  0  0999 V2000
    5.9617   -1.7984    0.0000 C   0  0  0  0  0  0  0  0  0  0  0  0
    4.4617   -1.7984    0.0000 C   0  0  0  0  0  0  0  0  0  0  0  0
    3.7117   -0.4994    0.0000 O   0  0  0  0  0  0  0  0  0  0  0  0
    2.2117   -0.4994    0.0000 P   0  0  0  0  0  0  0  0  0  0  0  0
    1.4617   -1.7984    0.0000 O   0  0  0  0  0  0  0  0  0  0  0  0
    2.4722    0.9779    0.0000 O   0  0  0  0  0  0  0  0  0  0  0  0
    0.8021    0.0137    0.0000 O   0  0  0  0  0  0  0  0  0  0  0  0
  1  2  1  0
  2  3  1  0
  3  4  1  0
  4  5  1  0
  4  6  1  0
  4  7  2  0
M  END
>  <cdk:Title>  (722) 
Ethylphosphate

>  <1A2>  (722) 
N

>  <2A6>  (722) 
N

>  <2B6>  (722) 
N

>  <2C8>  (722) 
N

>  <2C9>  (722) 
N

>  <2C19>  (722) 
N

>  <2D6>  (722) 
N

>  <2E1>  (722) 
N

>  <3A4>  (722) 
N

>  <Citation>  (722) 
Nucleic Acids Res. 2018. Jan 4;46(D1):D608-17. PMID:29140435
Nucleic Acids Res. 2018 Jan 4;46(D1):D1074-D1082. PMID:29126136
Nucleic Acids Res., 45:D380-388 (2017).  PMID:27924025
Nucleic Acids Res. 2016 Jan 4;44(D1):D1202-13. PMID:26400175

>  <ROMol>  (722) 
<rdkit.Chem.rdchem.Mol object at 0x7c2905de8580>

>  <Drug_like>  (722) 
True

$$$$
2-Aminomuconic acid
     RDKit          2D

 11 10  0  0  0  0  0  0  0  0999 V2000
    6.8200   -1.6875    0.0000 C   0  0  0  0  0  0  0  0  0  0  0  0
    8.1190   -2.4375    0.0000 C   0  0  0  0  0  0  0  0  0  0  0  0
    9.4180   -1.6875    0.0000 C   0  0  0  0  0  0  0  0  0  0  0  0
    9.4180   -0.1875    0.0000 O   0  0  0  0  0  0  0  0  0  0  0  0
   10.7171   -2.4375    0.0000 O   0  0  0  0  0  0  0  0  0  0  0  0
    6.8200   -0.1875    0.0000 C   0  0  0  0  0  0  0  0  0  0  0  0
    5.5209    0.5625    0.0000 C   0  0  0  0  0  0  0  0  0  0  0  0
    4.2219   -0.1875    0.0000 C   0  0  0  0  0  0  0  0  0  0  0  0
    2.9228    0.5625    0.0000 O   0  0  0  0  0  0  0  0  0  0  0  0
    4.2219   -1.6875    0.0000 O   0  0  0  0  0  0  0  0  0  0  0  0
    5.5209    2.0625    0.0000 N   0  0  0  0  0  0  0  0  0  0  0  0
  1  2  2  0
  2  3  1  0
  3  4  2  0
  3  5  1  0
  1  6  1  0
  6  7  2  0
  7  8  1  0
  8  9  1  0
  8 10  2  0
  7 11  1  0
M  END
>  <cdk:Title>  (723) 
2-Aminomuconic acid

>  <1A2>  (723) 
N

>  <2A6>  (723) 
N

>  <2B6>  (723) 
N

>  <2C8>  (723) 
N

>  <2C9>  (723) 
N

>  <2C19>  (723) 
N

>  <2D6>  (723) 
N

>  <2E1>  (723) 
N

>  <3A4>  (723) 
N

>  <Citation>  (723) 
Nucleic Acids Res. 2018. Jan 4;46(D1):D608-17. PMID:29140435
Nucleic Acids Res. 2018 Jan 4;46(D1):D1074-D1082. PMID:29126136
Nucleic Acids Res., 45:D380-388 (2017).  PMID:27924025
Nucleic Acids Res. 2016 Jan 4;44(D1):D1202-13. PMID:26400175

>  <ROMol>  (723) 
<rdkit.Chem.rdchem.Mol object at 0x7c2905de8660>

>  <Drug_like>  (723) 
True

$$$$
11-Dihydro-12-norneoquassin
     RDKit          2D

 27 30  0  0  0  0  0  0  0  0999 V2000
   -7.4481   -6.3423    0.0000 C   0  0  0  0  0  0  0  0  0  0  0  0
   -6.4819   -5.1950    0.0000 C   0  0  0  0  0  0  0  0  0  0  0  0
   -7.7819   -4.4350    0.0000 C   0  0  0  0  0  0  0  0  0  0  0  0
   -7.7819   -2.9350    0.0000 C   0  0  0  0  0  0  0  0  0  0  0  0
   -6.4819   -2.1850    0.0000 C   0  0  0  0  0  0  0  0  0  0  0  0
   -5.2519   -2.9350    0.0000 C   0  0  0  0  0  0  0  0  0  0  0  0
   -4.6614   -0.0549    0.0000 C   0  0  0  0  0  0  0  0  0  0  0  0
   -5.1819   -4.4350    0.0000 C   0  0  0  0  0  0  0  0  0  0  0  0
   -3.8919   -5.2050    0.0000 C   0  0  0  0  0  0  0  0  0  0  0  0
   -2.5919   -4.4450    0.0000 C   0  0  0  0  0  0  0  0  0  0  0  0
   -2.5919   -2.9550    0.0000 C   0  0  0  0  0  0  0  0  0  0  0  0
   -1.3263   -4.4777    0.0000 C   0  0  0  0  0  0  0  0  0  0  0  0
   -1.2819   -2.2150    0.0000 C   0  0  0  0  0  0  0  0  0  0  0  0
    0.0081   -2.9650    0.0000 C   0  0  0  0  0  0  0  0  0  0  0  0
   -0.0019   -4.4650    0.0000 C   0  0  0  0  0  0  0  0  0  0  0  0
    0.5023   -5.8777    0.0000 O   0  0  0  0  0  0  0  0  0  0  0  0
   -1.3019   -5.2050    0.0000 O   0  0  0  0  0  0  0  0  0  0  0  0
   -1.3519   -0.7150    0.0000 C   0  0  0  0  0  0  0  0  0  0  0  0
    1.5525   -1.1713    0.0000 C   0  0  0  0  0  0  0  0  0  0  0  0
   -2.5619    0.0450    0.0000 C   0  0  0  0  0  0  0  0  0  0  0  0
   -3.8619   -0.6950    0.0000 C   0  0  0  0  0  0  0  0  0  0  0  0
   -3.8719   -2.1950    0.0000 C   0  0  0  0  0  0  0  0  0  0  0  0
   -4.3660    0.7178    0.0000 O   0  0  0  0  0  0  0  0  0  0  0  0
   -2.5294    1.5447    0.0000 O   0  0  0  0  0  0  0  0  0  0  0  0
   -6.4637   -0.6851    0.0000 O   0  0  0  0  0  0  0  0  0  0  0  0
   -9.0808   -2.1848    0.0000 O   0  0  0  0  0  0  0  0  0  0  0  0
  -10.3799   -2.9345    0.0000 C   0  0  0  0  0  0  0  0  0  0  0  0
  1  2  1  0
  2  3  1  0
  3  4  2  0
  4  5  1  0
  5  6  1  0
  6  7  1  1
  6  8  1  0
  2  8  1  0
  8  9  1  0
  9 10  1  0
 10 11  1  0
 11 12  1  1
 11 13  1  0
 13 14  1  0
 14 15  1  0
 15 16  1  0
 15 17  1  0
 10 17  1  0
 13 18  1  0
 18 19  1  0
 18 20  1  0
 20 21  1  0
 21 22  1  0
 11 22  1  0
  6 22  1  0
 21 23  1  0
 20 24  2  0
  5 25  2  0
  4 26  1  0
 26 27  1  0
M  END
>  <cdk:Title>  (724) 
11-Dihydro-12-norneoquassin

>  <1A2>  (724) 
N

>  <2A6>  (724) 
N

>  <2B6>  (724) 
N

>  <2C8>  (724) 
N

>  <2C9>  (724) 
N

>  <2C19>  (724) 
N

>  <2D6>  (724) 
N

>  <2E1>  (724) 
N

>  <3A4>  (724) 
N

>  <Citation>  (724) 
Nucleic Acids Res. 2018. Jan 4;46(D1):D608-17. PMID:29140435
Nucleic Acids Res. 2018 Jan 4;46(D1):D1074-D1082. PMID:29126136
Nucleic Acids Res., 45:D380-388 (2017).  PMID:27924025
Nucleic Acids Res. 2016 Jan 4;44(D1):D1202-13. PMID:26400175

>  <ROMol>  (724) 
<rdkit.Chem.rdchem.Mol object at 0x7c2905de86d0>

>  <Drug_like>  (724) 
True

$$$$
